%nproc=24
%mem=175gb
#p wB97XD/Def2SVP td=(nstates=5)

TDDFT excited states in gaussian

0 1
Mg 34.81300 49.43200 25.14500
C  35.01600 47.65700 28.22400
C  33.32400 52.02800 26.83800
C  34.65200 50.90000 22.18900
C  35.90600 46.46600 23.43400
N  34.14900 49.79800 27.34500
C  34.46100 48.93800 28.38200
C  33.98800 49.65100 29.69500
C  33.38500 51.08500 29.24000
C  33.61700 50.95700 27.73100
C  31.94200 51.39000 29.69300
C  35.01900 49.70600 30.89700
C  34.55900 49.07300 32.17800
H  33.11300 48.96700 32.58500
N  34.17200 51.35300 24.58700
C  33.58900 52.24400 25.43200
C  33.45200 53.46600 24.68200
C  33.72500 53.14400 23.33500
C  34.19500 51.72200 23.26900
C  32.90900 54.73200 25.36600
C  33.46900 53.99900 22.13100
O  33.64100 53.56300 20.96800
C  32.94500 55.37500 22.31400
N  35.18300 48.68800 23.08400
C  35.11600 49.51200 22.09700
C  35.57200 48.95700 20.64400
C  35.95000 47.52900 21.06600
C  35.68700 47.53300 22.55200
C  34.36900 49.06600 19.63700
C  37.40800 47.05400 20.73300
C  38.54700 47.67100 21.57900
N  35.21400 47.49800 25.67400
C  35.61800 46.42200 24.84900
C  35.92400 45.27900 25.72000
C  35.71000 45.72300 27.04700
C  35.31700 47.10200 26.97200
C  36.42700 43.88500 25.23900
C  35.78900 45.30100 28.34400
O  36.05400 44.22400 28.83800
C  35.40700 46.52600 29.22100
C  34.34200 46.13400 30.11500
O  33.13700 46.19100 29.84500
O  34.87800 45.46700 31.22300
C  33.86400 44.85200 32.11500
H  32.63300 52.79500 27.19500
H  34.43900 51.33900 21.21200
H  36.24500 45.54000 22.96500
H  33.26200 48.90600 30.01800
H  33.96500 51.87500 29.71500
H  31.90300 52.32700 30.25000
H  31.43700 50.62000 30.27600
H  31.39300 51.49300 28.75700
H  35.30500 50.73900 31.09600
H  35.87800 49.12400 30.56300
H  34.83800 49.76200 32.97600
H  35.03100 48.09400 32.25300
H  32.96100 54.66600 26.45300
H  31.87600 54.89800 25.06300
H  33.55400 55.53200 25.00400
H  33.66100 55.90400 22.94300
H  31.99400 55.37100 22.84800
H  32.75700 55.84600 21.35000
H  36.44300 49.49500 20.26900
H  35.19100 46.83200 20.71000
H  33.44700 48.97400 20.21100
H  34.41800 48.21400 18.95800
H  34.29100 49.96700 19.02800
H  37.57700 47.10800 19.65800
H  37.43700 45.97400 20.87400
H  38.40300 48.69400 21.92500
H  39.48100 47.54600 21.03000
H  38.64300 47.01100 22.44100
H  37.30600 43.53600 25.78100
H  36.62200 43.84300 24.16800
H  35.74400 43.11800 25.60500
H  36.33300 46.69700 29.76900
H  33.38300 44.00700 31.62300
H  33.04700 45.51600 32.39500
H  34.36200 44.67800 33.06900
Mg 25.49300 50.21300 27.08700
C  23.37900 51.54000 29.65700
C  27.62800 49.17200 29.69500
C  27.85200 49.59100 24.90700
C  23.46200 51.62200 24.75200
N  25.44300 50.31400 29.39800
C  24.41900 50.80900 30.13400
C  24.66700 50.47600 31.59600
C  26.00400 49.68800 31.68900
C  26.38100 49.68400 30.19500
C  27.10100 50.37400 32.68300
C  23.49400 49.61900 32.23900
C  22.96400 50.09200 33.59300
H  23.92100 50.77900 34.64800
N  27.50700 49.52400 27.28400
C  28.12900 49.15000 28.38200
C  29.45200 48.73800 28.00600
C  29.55900 48.68700 26.59300
C  28.31600 49.30500 26.21200
C  30.44200 48.13300 29.00000
C  30.57100 48.09600 25.62400
O  30.49100 48.23300 24.41700
C  31.66500 47.26500 26.23600
N  25.76300 50.88600 25.17100
C  26.76300 50.29700 24.39500
C  26.51800 50.44800 22.86900
C  25.02700 50.95500 22.90400
C  24.70800 51.17300 24.38300
C  27.54000 51.40800 22.24300
C  23.97400 49.88700 22.34200
C  23.37400 50.12000 20.99600
N  23.75000 51.22900 27.14200
C  23.04900 51.77400 26.08800
C  21.90700 52.57500 26.52100
C  21.98600 52.51200 27.95800
C  23.17000 51.80300 28.27000
C  20.85200 53.08800 25.60900
C  21.31100 52.84500 29.20300
O  20.22900 53.44600 29.33300
C  22.22800 52.23700 30.41000
C  22.63900 53.39700 31.18500
O  23.23000 54.34500 30.71600
O  22.29300 53.27500 32.47200
C  22.54800 54.35700 33.47400
H  28.29000 48.76300 30.46100
H  28.36300 49.05600 24.10300
H  22.79700 51.98300 23.96500
H  24.78800 51.42300 32.12200
H  25.86900 48.70800 32.14700
H  26.61300 51.02100 33.41200
H  27.77100 50.92200 32.02000
H  27.67200 49.59700 33.19100
H  23.69200 48.55100 32.31900
H  22.62100 49.66400 31.58800
H  22.46400 49.28700 34.13200
H  22.16000 50.77100 33.30900
H  30.45600 47.04300 29.00900
H  30.32700 48.56400 29.99500
H  31.42700 48.48300 28.69200
H  31.35000 46.60400 27.04400
H  32.50000 47.83500 26.64100
H  31.97600 46.50800 25.51600
H  26.62800 49.45900 22.42500
H  24.97100 51.86600 22.30800
H  28.36600 51.68000 22.90000
H  27.08200 52.35600 21.96300
H  27.94500 50.95800 21.33600
H  23.09600 49.73600 22.97000
H  24.37200 48.87300 22.33000
H  23.66900 49.32700 20.31000
H  23.80100 51.07900 20.70200
H  22.28600 50.13300 21.06000
H  19.87400 53.08000 26.08900
H  20.94000 52.51200 24.68800
H  21.11300 54.12300 25.38400
H  21.65900 51.56400 31.05000
H  22.17700 55.30500 33.08400
H  23.60800 54.48100 33.69700
H  22.16500 54.13200 34.46900


