%nproc=24
%mem=175gb
#p wB97XD/Def2SVP td=(nstates=5)

TDDFT excited states in gaussian

0 1
Mg 46.48800 44.18100 43.47500
C  43.15300 43.46100 43.30400
C  47.10800 40.75600 42.73500
C  49.77100 44.92500 43.24200
C  45.73500 47.57600 43.26500
N  45.18800 42.33600 42.67700
C  43.85400 42.27500 42.94800
C  43.32200 40.91600 42.58600
C  44.62300 40.02800 42.36600
C  45.76600 41.06300 42.61200
C  44.58600 38.65100 42.92100
C  42.20900 40.77400 41.44300
C  42.22600 41.75800 40.31100
H  42.13200 41.19200 38.90100
N  48.19100 42.96300 43.28600
C  48.25100 41.62900 43.02600
C  49.60100 41.16100 42.91600
C  50.41700 42.37800 43.18500
C  49.45800 43.50200 43.25700
C  50.07700 39.81200 42.65600
C  51.92500 42.49800 43.35200
O  52.62900 41.58000 43.12100
C  52.68900 43.74400 43.70500
N  47.56100 45.95400 43.15400
C  48.89600 45.98900 43.28400
C  49.46200 47.47200 42.97200
C  48.15100 48.31100 43.36800
C  47.10700 47.23300 43.19900
C  50.71200 47.88700 43.75300
C  48.00000 49.60500 42.54800
C  47.68500 50.93800 43.23700
N  44.79500 45.31200 43.20500
C  44.59800 46.68700 43.17600
C  43.22600 47.01600 43.20700
C  42.57500 45.79800 43.31300
C  43.57500 44.76200 43.30900
C  42.60800 48.38000 43.21500
C  41.37100 45.09400 43.47000
O  40.23700 45.56500 43.52900
C  41.64700 43.57300 43.29900
C  40.96100 42.96000 44.51100
O  40.13800 42.02200 44.45100
O  41.52200 43.52500 45.63200
C  41.27100 42.99100 46.99300
H  47.22800 39.72900 42.38400
H  50.80000 45.16300 42.96500
H  45.50900 48.64400 43.27100
H  42.74600 40.53700 43.43100
H  44.70600 39.88500 41.28900
H  45.47200 38.39300 43.50100
H  44.34100 37.90700 42.16300
H  43.78400 38.58200 43.65600
H  41.18300 40.86000 41.80100
H  42.35800 39.83500 40.90900
H  42.98200 42.53800 40.39500
H  41.27000 42.28200 40.33700
H  49.35900 39.10300 43.06700
H  51.06100 39.59900 43.07200
H  50.12200 39.70100 41.57200
H  51.89900 44.16700 44.32600
H  52.89000 44.37800 42.84200
H  53.62800 43.61700 44.24400
H  49.58000 47.51900 41.88900
H  48.02200 48.62000 44.40500
H  50.38700 48.59700 44.51400
H  51.51000 48.17200 43.06800
H  51.16800 47.06300 44.30100
H  47.21200 49.41800 41.81800
H  48.88600 49.70600 41.92100
H  48.29300 51.80900 42.99200
H  47.59300 50.84600 44.32000
H  46.63600 51.07800 42.97800
H  41.68900 48.46100 43.79600
H  42.39500 48.66700 42.18500
H  43.24900 49.14100 43.66200
H  41.15500 43.34600 42.35400
H  42.16000 43.01500 47.62300
H  40.93100 41.96000 46.89400
H  40.51300 43.43800 47.63500
Mg 29.51000 58.90800 41.21400
C  26.38900 57.48600 40.17300
C  31.07800 56.05600 39.82600
C  32.44700 60.51200 41.46200
C  27.84100 61.85400 41.88400
N  28.82700 56.95900 40.12100
C  27.51800 56.70000 39.82500
C  27.43600 55.53200 38.85500
C  28.91100 54.97600 39.03000
C  29.71500 56.02800 39.69400
C  29.08100 53.62400 39.80100
C  26.96300 56.03100 37.45200
C  25.85600 55.22200 36.65900
H  26.19700 54.60200 35.29200
N  31.43900 58.34900 40.91600
C  31.91100 57.13400 40.35300
C  33.36200 57.11100 40.33800
C  33.74700 58.43000 40.81400
C  32.51100 59.13800 41.09000
C  34.11400 55.98100 39.76900
C  35.21500 58.86100 40.97700
O  36.08800 58.03800 40.57400
C  35.69500 60.19600 41.58500
N  30.14600 61.00100 41.36300
C  31.38600 61.37000 41.62100
C  31.40400 62.84700 41.84900
C  29.90900 63.22000 42.03600
C  29.21400 61.95000 41.65200
C  32.31600 63.46200 42.99500
C  29.40100 64.48800 41.17400
C  28.93400 65.75600 41.93000
N  27.56300 59.51200 41.26600
C  27.03200 60.71300 41.55100
C  25.61900 60.69600 41.44600
C  25.33000 59.42300 40.94900
C  26.56000 58.73200 40.80800
C  24.61100 61.72700 41.76100
C  24.21900 58.63400 40.51400
O  23.05400 58.95300 40.43300
C  24.92200 57.26000 39.91000
C  24.42400 56.08500 40.63500
O  24.27500 56.00600 41.86100
O  24.19400 55.10700 39.69100
C  23.68300 53.83100 40.18900
H  31.62000 55.20100 39.41900
H  33.35900 61.11200 41.46000
H  27.25300 62.67600 42.29800
H  26.78700 54.79200 39.32400
H  29.19500 54.98000 37.97700
H  29.75800 53.81000 40.63600
H  29.53300 52.82700 39.21100
H  28.17800 53.23200 40.27000
H  27.91200 55.97700 36.91900
H  26.65200 57.07400 37.39700
H  25.02500 55.92000 36.55900
H  25.42300 54.48900 37.33900
H  33.71100 55.81900 38.76900
H  33.89700 55.07100 40.32800
H  35.20300 56.02600 39.79800
H  35.47200 60.98900 40.87100
H  36.68900 59.96900 41.96900
H  35.05300 60.30300 42.46000
H  31.80800 63.29500 40.94200
H  29.82800 63.26800 43.12200
H  32.55800 64.46300 42.63700
H  33.18900 62.82200 43.12200
H  31.69200 63.52000 43.88700
H  28.59500 64.07600 40.56700
H  30.17400 64.71200 40.43900
H  27.96900 66.12300 41.58300
H  29.69100 66.53100 41.80700
H  28.89100 65.63000 43.01200
H  23.61700 61.29700 41.88000
H  24.71500 62.31200 40.84700
H  25.04500 62.40800 42.49300
H  24.83500 57.21500 38.82500
H  22.80800 53.96700 40.82500
H  24.47100 53.30400 40.72900
H  23.37200 53.22500 39.33800


