%nproc=24
%mem=175gb
#p wB97XD/Def2SVP td=(nstates=5)

TDDFT excited states in gaussian

0 1
Mg 25.26700 0.12000 29.48500
C  27.14100 -0.08700 32.36300
C  22.44200 0.65100 31.48400
C  23.33900 0.24400 26.71700
C  27.97000 -0.76800 27.63500
N  24.82700 -0.00300 31.72000
C  25.83000 0.13900 32.68700
C  25.26100 0.57400 34.05200
C  23.73000 0.68200 33.70700
C  23.61100 0.48500 32.21100
C  22.87000 -0.30200 34.49000
C  25.80700 1.87500 34.74000
C  26.64900 1.68700 36.11600
H  25.98700 2.43400 37.27800
N  23.21300 0.29800 29.14100
C  22.23900 0.64000 30.09300
C  20.97400 1.01400 29.45200
C  21.16000 0.82900 27.97700
C  22.63600 0.50000 27.85200
C  19.74900 1.44500 30.22800
C  20.23300 0.96600 26.86300
O  20.59800 0.66100 25.71800
C  18.79000 1.40700 27.03500
N  25.61300 -0.29200 27.55300
C  24.69700 -0.04800 26.51300
C  25.29200 -0.18000 25.05300
C  26.81800 -0.54700 25.43400
C  26.79800 -0.51500 26.97900
C  24.57500 -1.29000 24.13700
C  27.83300 0.46900 24.80600
C  29.13600 -0.06400 24.29800
N  27.18000 -0.44400 29.94400
C  28.21700 -0.73500 29.05300
C  29.45900 -0.85000 29.73800
C  29.08500 -0.49600 31.08700
C  27.69300 -0.34600 31.12700
C  30.82000 -1.11200 29.24500
C  29.58400 -0.41400 32.42400
O  30.70000 -0.50100 32.94800
C  28.28000 -0.28500 33.33500
C  28.18400 -1.48700 34.20500
O  27.52600 -2.44100 34.06000
O  28.92900 -1.30000 35.36700
C  28.48600 -2.07100 36.51000
H  21.58300 0.90400 32.10900
H  22.84400 0.32400 25.74700
H  28.87000 -0.90500 27.03200
H  25.38700 -0.24700 34.75700
H  23.31500 1.64400 34.00900
H  22.43700 -1.01900 33.79300
H  22.09100 0.33900 34.90100
H  23.35600 -0.79100 35.33400
H  24.95600 2.52500 34.94500
H  26.49900 2.40700 34.08700
H  27.58200 2.20000 35.88200
H  26.76100 0.62900 36.35200
H  19.34600 0.54600 30.69600
H  19.02800 1.84900 29.51900
H  19.97500 2.10600 31.06500
H  18.28300 1.10300 26.11900
H  18.67500 2.47500 27.22300
H  18.18400 0.86400 27.76000
H  25.32400 0.80000 24.57800
H  27.16700 -1.50900 25.05800
H  25.34100 -1.79600 23.54900
H  23.91500 -0.92500 23.35100
H  24.00900 -2.02000 24.71600
H  28.05800 1.32200 25.44600
H  27.45300 0.92700 23.89300
H  29.88300 0.35500 24.97200
H  29.54600 0.28700 23.35100
H  29.13600 -1.15300 24.35500
H  30.88400 -0.76300 28.21400
H  30.89900 -2.19900 29.25700
H  31.53400 -0.73600 29.97800
H  28.35300 0.59900 33.96800
H  28.85600 -3.07500 36.30500
H  27.39700 -2.05300 36.47000
H  28.92200 -1.70000 37.43800
Mg 44.01800 2.91800 47.66100
C  42.06000 5.71500 47.01900
C  41.00600 1.01600 47.31200
C  45.79900 0.15700 47.76200
C  46.87900 4.91700 47.24100
N  41.83200 3.33000 47.09800
C  41.29400 4.59200 46.98100
C  39.79500 4.50000 46.68300
C  39.48700 3.02600 47.06600
C  40.84700 2.38200 47.12900
C  38.69200 2.74400 48.40100
C  39.44800 4.83900 45.22400
C  38.00300 4.93400 44.91400
H  37.59500 5.76800 43.64000
N  43.49300 0.83400 47.54100
C  42.21400 0.26700 47.42800
C  42.35900 -1.16200 47.43400
C  43.77600 -1.43800 47.42700
C  44.43200 -0.09700 47.60800
C  41.15600 -2.13400 47.28600
C  44.34200 -2.85900 47.34100
O  43.62700 -3.84400 47.42200
C  45.80100 -3.04100 47.16300
N  46.06200 2.62900 47.74100
C  46.53800 1.38200 47.82400
C  48.11500 1.40300 47.69600
C  48.51000 2.91300 47.47000
C  47.02000 3.56100 47.42600
C  48.93400 0.68700 48.80200
C  49.24600 3.07700 46.12300
C  50.25900 4.22700 46.06800
N  44.47400 4.92000 47.22100
C  45.65200 5.61300 47.20700
C  45.34700 7.04400 47.09000
C  43.98000 7.11700 47.10900
C  43.47900 5.83500 47.12000
C  46.36600 8.18800 47.10600
C  42.87400 8.02300 47.02800
O  42.81600 9.22700 46.97900
C  41.57700 7.14800 46.98100
C  40.79100 7.44500 48.21000
O  41.19100 7.46200 49.34100
O  39.43700 7.57100 47.85400
C  38.52600 7.78100 48.94300
H  40.02600 0.53600 47.28500
H  46.51600 -0.66500 47.82200
H  47.74600 5.57800 47.17700
H  39.30800 5.14400 47.41400
H  38.96600 2.43700 46.31200
H  37.88000 2.08800 48.08800
H  38.53600 3.57700 49.08700
H  39.33000 2.09900 49.00500
H  39.75400 4.10000 44.48300
H  39.93900 5.76800 44.93400
H  37.52300 5.35800 45.79600
H  37.59600 3.92700 44.82400
H  41.34100 -2.41600 46.24900
H  40.16900 -1.67200 47.25600
H  41.01800 -3.02000 47.90600
H  46.05900 -2.38200 46.33400
H  45.98200 -4.06600 46.83900
H  46.21200 -2.73700 48.12600
H  48.33800 0.83400 46.79300
H  49.07900 3.37000 48.27900
H  49.32800 -0.23900 48.38200
H  48.30000 0.56800 49.68000
H  49.82500 1.27000 49.03500
H  48.45300 3.22300 45.39000
H  49.73200 2.16800 45.76800
H  51.18600 3.72000 45.79800
H  50.32400 4.81900 46.98100
H  50.02100 4.90100 45.24500
H  46.22000 8.97700 46.36900
H  47.30400 7.65100 46.96300
H  46.44100 8.50600 48.14600
H  41.03900 7.44900 46.08200
H  38.18200 8.81200 48.86000
H  38.86300 7.60600 49.96500
H  37.69400 7.09100 48.80500


