%nproc=24
%mem=175gb
#p wB97XD/Def2SVP td=(nstates=5)

TDDFT excited states in gaussian

0 1
Mg 24.36900 -6.98700 46.60800
C  26.68400 -4.76900 45.35200
C  21.90100 -5.12400 45.15800
C  22.46500 -9.68400 46.72500
C  27.03400 -8.80400 47.99500
N  24.41600 -5.40800 45.00500
C  25.43000 -4.51800 44.85100
C  25.02900 -3.31400 44.05100
C  23.50400 -3.26400 44.39000
C  23.25600 -4.65400 44.95700
C  23.12700 -2.08400 45.33100
C  25.27600 -3.52100 42.47300
C  25.72300 -2.21200 41.67100
H  24.68300 -1.93800 40.61300
N  22.38400 -7.27700 46.19700
C  21.52700 -6.46900 45.53500
C  20.22900 -7.11300 45.37800
C  20.37200 -8.43000 45.86100
C  21.79800 -8.50600 46.28600
C  19.04300 -6.37400 44.71200
C  19.31200 -9.48200 45.68900
O  18.25700 -9.18500 45.19200
C  19.48300 -10.96700 46.06200
N  24.62900 -8.97800 47.39100
C  23.73100 -9.85500 47.30000
C  24.17900 -11.20600 47.72000
C  25.67400 -10.94700 48.15800
C  25.81200 -9.52100 47.84300
C  23.22200 -11.82700 48.79300
C  26.70500 -11.85900 47.34500
C  28.13900 -12.05100 47.95500
N  26.42100 -6.83200 46.76500
C  27.35000 -7.59400 47.45000
C  28.63900 -6.96000 47.42800
C  28.41400 -5.78200 46.63300
C  27.10800 -5.81900 46.18400
C  29.90100 -7.42400 48.08100
C  29.04200 -4.60800 46.13300
O  30.18200 -4.13000 46.19600
C  28.00800 -4.00400 45.12600
C  27.97900 -2.53300 45.37600
O  28.65400 -1.69700 44.75900
O  27.14200 -2.25800 46.42200
C  27.16400 -0.79200 46.68700
H  21.02900 -4.53900 44.85700
H  21.83100 -10.57200 46.69600
H  27.87200 -9.43200 48.30700
H  25.56100 -2.49300 44.53000
H  22.94300 -3.07800 43.47400
H  22.46400 -1.40000 44.80200
H  24.04300 -1.52500 45.52500
H  22.72200 -2.51300 46.24700
H  24.47600 -4.01300 41.92000
H  26.07600 -4.24200 42.30800
H  26.63900 -2.51400 41.16300
H  25.99300 -1.30800 42.21700
H  18.63800 -6.86100 43.82500
H  19.24900 -5.33100 44.46900
H  18.26300 -6.29000 45.46800
H  19.62500 -11.12900 47.13000
H  20.27800 -11.46900 45.51000
H  18.60200 -11.45500 45.64400
H  24.15900 -11.77400 46.79000
H  25.92100 -11.00100 49.21800
H  22.84600 -12.76100 48.37600
H  22.40400 -11.15300 49.04800
H  23.73300 -12.22400 49.67000
H  26.84400 -11.46000 46.34000
H  26.21500 -12.82700 47.25100
H  28.51200 -13.04100 48.21600
H  28.22300 -11.52500 48.90500
H  28.89100 -11.63100 47.28700
H  29.81500 -8.26400 48.77000
H  30.19100 -6.49700 48.57400
H  30.52400 -7.56700 47.19800
H  28.23100 -4.20700 44.07800
H  28.13300 -0.51500 47.10100
H  26.50700 -0.50200 47.50700
H  26.90400 -0.28600 45.75700
Mg 25.47400 50.80800 26.36000
C  23.42800 51.77500 29.14000
C  27.78000 49.80000 28.46900
C  27.48600 50.74800 23.72700
C  22.89100 52.35600 24.24800
N  25.55500 50.75400 28.55700
C  24.64000 51.22200 29.52100
C  25.12200 51.01800 31.00700
C  26.56400 50.28500 30.68300
C  26.67300 50.24400 29.16200
C  27.79400 51.06900 31.31300
C  24.14500 50.22000 31.93900
C  24.75600 49.66700 33.22100
H  24.21600 50.30100 34.51600
N  27.35300 50.24000 26.12300
C  28.22400 49.80700 27.09500
C  29.50900 49.42000 26.55200
C  29.38500 49.70200 25.13400
C  27.97500 50.19600 24.94200
C  30.61900 48.81900 27.27800
C  30.38700 49.50900 24.00900
O  30.13300 49.66800 22.84800
C  31.78500 49.18000 24.46100
N  25.24600 51.52100 24.28400
C  26.25500 51.32600 23.39800
C  25.83300 51.76400 21.97000
C  24.32300 52.13900 22.16700
C  24.10500 51.95100 23.65600
C  26.64800 52.90800 21.27600
C  23.28700 51.29000 21.34900
C  23.20200 51.69600 19.86100
N  23.59000 51.86200 26.56100
C  22.66400 52.33500 25.66000
C  21.52300 52.77100 26.36200
C  21.75600 52.64400 27.68000
C  23.06700 52.09200 27.80400
C  20.26700 53.21900 25.62600
C  21.30400 52.86100 29.05800
O  20.28500 53.34300 29.48100
C  22.42600 52.30600 30.05900
C  23.02400 53.48800 30.75300
O  23.93000 54.23000 30.44700
O  22.33300 53.57900 31.94500
C  22.72800 54.66700 32.87100
H  28.62400 49.48900 29.08800
H  28.23800 50.84300 22.94000
H  22.18300 52.67600 23.48000
H  25.36700 52.00000 31.41200
H  26.54900 49.29900 31.14800
H  28.47500 50.35700 31.77900
H  27.60200 51.88000 32.01500
H  28.41300 51.49500 30.52400
H  23.78800 49.47000 31.23200
H  23.21100 50.69500 32.24000
H  25.83400 49.82400 33.19700
H  24.45000 48.62700 33.33100
H  30.63000 47.83900 26.80100
H  30.42700 48.80700 28.35100
H  31.61000 49.25400 27.15000
H  31.91600 48.09800 24.46700
H  32.15000 49.82600 25.26000
H  32.40300 49.70200 23.73100
H  25.75100 50.83500 21.40500
H  24.20500 53.21400 22.02900
H  26.08400 53.79400 20.98300
H  26.95200 52.49600 20.31400
H  27.50400 53.28000 21.83900
H  22.29300 51.43100 21.77200
H  23.59200 50.25400 21.50300
H  23.57200 52.71200 19.72200
H  22.15600 51.57400 19.58000
H  23.82700 51.09700 19.19800
H  19.37700 53.06800 26.23700
H  20.20500 52.68100 24.68000
H  20.36300 54.25800 25.31000
H  22.01700 51.57800 30.76000
H  21.79500 55.04700 33.28700
H  23.27800 55.48100 32.39900
H  23.31400 54.08500 33.58300


