%nproc=24
%mem=175gb
#p wB97XD/Def2SVP td=(nstates=5)

TDDFT excited states in gaussian

0 1
Mg 8.37300 3.02000 27.58300
C  9.66800 1.59900 30.62700
C  6.70500 5.26800 29.53700
C  6.93600 4.14100 24.76700
C  9.73100 0.40000 25.89700
N  8.26000 3.41400 29.92600
C  8.92300 2.70600 30.88600
C  8.72800 3.42100 32.16900
C  7.67000 4.51900 31.87000
C  7.43900 4.42400 30.33700
C  6.33800 4.27100 32.64700
C  9.97700 3.96400 32.81700
C  9.90300 4.49900 34.23800
H  10.91500 4.00800 35.18600
N  7.11500 4.54900 27.20100
C  6.43400 5.32900 28.17600
C  5.69100 6.36700 27.43700
C  5.70300 5.96800 26.10300
C  6.57300 4.78400 25.98300
C  4.94900 7.46900 28.16400
C  5.04400 6.62700 24.87200
O  4.92600 6.07300 23.76300
C  4.55800 8.00900 25.03700
N  8.26900 2.33700 25.58000
C  7.65300 2.93000 24.57800
C  7.79400 2.17100 23.23000
C  8.87800 1.15300 23.59100
C  9.00200 1.33000 25.08700
C  6.44500 1.50000 22.80300
C  10.20800 1.29100 22.88500
C  10.86600 -0.01000 22.39200
N  9.53800 1.41400 28.13000
C  10.02500 0.42800 27.30000
C  10.88100 -0.54000 28.05000
C  10.69600 -0.06300 29.33200
C  9.85900 1.05900 29.36100
C  11.78700 -1.59900 27.50900
C  11.07900 -0.33300 30.71000
O  11.83900 -1.20400 31.11800
C  10.43500 0.73200 31.62700
C  9.77600 0.01400 32.68800
O  8.68700 -0.60500 32.61700
O  10.41500 0.23000 33.87100
C  9.76200 -0.17400 35.09700
H  6.23400 6.04600 30.14100
H  6.34700 4.39700 23.88400
H  9.91800 -0.50400 25.31400
H  8.28800 2.65400 32.80500
H  8.01700 5.51600 32.14200
H  5.84500 5.03100 33.25400
H  6.57700 3.45100 33.32400
H  5.53900 3.81600 32.06100
H  10.35300 4.83500 32.28000
H  10.84000 3.32300 32.63900
H  8.94300 4.25600 34.69100
H  10.21000 5.54200 34.16500
H  3.93400 7.63800 27.80500
H  5.45900 8.43200 28.14900
H  4.76300 7.27700 29.22100
H  5.36300 8.60800 25.46300
H  3.75000 7.88400 25.75700
H  4.37900 8.39200 24.03300
H  8.13900 2.90800 22.50400
H  8.61200 0.10400 23.46400
H  6.50600 0.41300 22.84700
H  6.19800 1.73200 21.76700
H  5.70700 1.85800 23.52100
H  10.93600 1.82600 23.49400
H  10.03500 2.08200 22.15600
H  11.47800 0.25700 21.53100
H  10.15100 -0.81800 22.23400
H  11.45900 -0.28500 23.26400
H  12.83900 -1.31500 27.47600
H  11.33000 -1.91300 26.57100
H  11.63300 -2.52100 28.07100
H  11.28200 1.20800 32.12100
H  8.73800 -0.52700 34.97200
H  9.83700 0.61100 35.84900
H  10.27900 -1.00300 35.58100
Mg 0.26000 43.34200 24.75600
C  2.25300 43.09900 27.61800
C  -2.44200 42.42000 26.69400
C  -1.57400 42.87700 21.91500
C  3.14600 43.60500 22.86000
N  -0.01100 42.92700 26.88700
C  0.88400 43.10000 27.86800
C  0.29200 43.09400 29.28500
C  -1.20300 42.68500 28.99500
C  -1.29800 42.75900 27.37000
C  -1.68200 41.32300 29.54200
C  0.44600 44.41100 30.04600
C  0.46000 44.23200 31.57500
H  0.30000 42.82500 32.16800
N  -1.74500 42.84700 24.34000
C  -2.74500 42.55800 25.29700
C  -3.99500 42.34000 24.59700
C  -3.74800 42.40500 23.17500
C  -2.33100 42.75300 23.08200
C  -5.28700 42.18000 25.35000
C  -4.75800 42.32200 21.94400
O  -4.44000 42.53400 20.79900
C  -6.18400 41.93600 22.27200
N  0.72800 43.16000 22.71000
C  -0.18900 43.01100 21.71100
C  0.47200 43.04900 20.28400
C  1.92800 43.34600 20.63900
C  1.92700 43.36400 22.15600
C  0.26000 41.87700 19.24300
C  2.38800 44.69400 20.03600
C  2.04300 46.00200 20.78200
N  2.32100 43.50900 25.09100
C  3.38200 43.61100 24.22900
C  4.61600 43.69300 24.93600
C  4.22700 43.48400 26.33500
C  2.89200 43.36300 26.33900
C  5.99200 43.88800 24.47400
C  4.71200 43.25500 27.68900
O  5.85600 43.34100 28.14800
C  3.47500 43.00100 28.60000
C  3.56600 41.71300 29.28000
O  3.33400 40.61600 28.78300
O  4.17100 41.89000 30.49900
C  4.75700 40.73100 31.20000
H  -3.23100 42.10200 27.37900
H  -2.18100 42.91300 21.00800
H  4.04900 43.78500 22.27300
H  0.67700 42.26400 29.87700
H  -1.92300 43.45600 29.26700
H  -2.57300 41.63600 30.08600
H  -0.94100 40.89700 30.21800
H  -1.87200 40.62800 28.72400
H  -0.32500 45.13200 29.77700
H  1.38300 44.89600 29.77100
H  -0.37400 44.87500 31.85700
H  1.32100 44.72000 32.03400
H  -5.00100 42.06900 26.39600
H  -5.81000 41.30000 24.97500
H  -5.96200 43.02800 25.22500
H  -6.37400 40.88800 22.50600
H  -6.81500 42.27400 21.45000
H  -6.38700 42.55900 23.14300
H  -0.03500 43.91100 19.85100
H  2.51500 42.52100 20.23700
H  1.17400 41.51200 18.77600
H  -0.34600 42.26100 18.42300
H  -0.30900 41.09200 19.74200
H  1.97300 44.71300 19.02900
H  3.46900 44.59400 19.93400
H  1.75200 46.69500 19.99300
H  2.89700 46.44600 21.29300
H  1.29400 45.88900 21.56500
H  6.47500 44.58100 25.16200
H  6.09900 44.26000 23.45500
H  6.57000 42.97800 24.63600
H  3.48200 43.84300 29.29200
H  4.58400 39.79600 30.66600
H  4.26600 40.64900 32.17000
H  5.80700 41.02000 31.22900


