%nproc=24
%mem=175gb
#p wB97XD/Def2SVP td=(nstates=5)

TDDFT excited states in gaussian

0 1
Mg 44.80500 2.87200 46.67800
C  42.56400 5.57100 46.81800
C  42.13800 0.79200 46.35700
C  47.01300 0.52400 46.12300
C  47.34200 5.37800 46.17800
N  42.64100 3.17100 46.66900
C  41.94200 4.34400 46.71700
C  40.48300 4.04900 46.33800
C  40.34000 2.59000 46.75700
C  41.78900 2.14300 46.48400
C  39.96100 2.42600 48.24700
C  40.23600 4.25700 44.79800
C  39.26900 5.45400 44.33400
H  39.83900 6.57400 43.44700
N  44.60700 0.93700 46.23600
C  43.41900 0.24600 46.16900
C  43.72000 -1.14400 46.02500
C  45.14200 -1.32500 46.06900
C  45.67600 0.06600 46.14000
C  42.62100 -2.25300 45.89000
C  45.87200 -2.71700 46.06400
O  45.23700 -3.72500 46.11700
C  47.31400 -2.74100 46.27700
N  46.83800 2.95400 45.90000
C  47.54500 1.82700 46.15300
C  49.01900 2.09000 46.41200
C  49.17500 3.56200 46.06200
C  47.67600 4.02200 46.03300
C  49.44600 1.78300 47.89500
C  49.96600 3.97900 44.73400
C  51.33300 4.60700 44.78400
N  45.00300 4.99200 46.72600
C  46.07700 5.86500 46.51000
C  45.65700 7.24900 46.55200
C  44.29400 7.16900 46.69900
C  43.89900 5.79300 46.77900
C  46.53700 8.41600 46.37700
C  43.08200 7.96600 46.81100
O  42.95000 9.19400 46.88400
C  41.94500 6.98400 47.00000
C  41.32800 7.26400 48.36600
O  42.00600 7.20100 49.38900
O  40.00100 7.70700 48.25300
C  39.36700 8.02300 49.50500
H  41.26200 0.14300 46.41400
H  47.71200 -0.30200 46.26300
H  48.13300 6.13000 46.13700
H  39.87300 4.80700 46.83000
H  39.59400 2.12600 46.11300
H  39.12500 1.73800 48.12600
H  39.66800 3.42600 48.56800
H  40.73100 2.03300 48.91100
H  39.76200 3.35000 44.42300
H  41.21000 4.30800 44.31200
H  38.98200 5.96200 45.25500
H  38.33700 5.13200 43.87100
H  42.71600 -2.97100 45.07600
H  41.68000 -1.71700 45.76200
H  42.51800 -2.85500 46.79300
H  47.88700 -2.17400 45.54300
H  47.64600 -3.77900 46.25800
H  47.54400 -2.49600 47.31300
H  49.67000 1.44400 45.82200
H  49.62700 4.10200 46.89400
H  49.91800 0.80800 48.01500
H  48.60400 1.96800 48.56200
H  50.20200 2.52100 48.16700
H  49.41200 4.48800 43.94600
H  50.09500 2.95900 44.37100
H  52.11800 3.97300 44.37300
H  51.60000 4.81700 45.82000
H  51.22600 5.52900 44.21300
H  47.39900 8.09600 45.79100
H  46.88900 8.66700 47.37800
H  45.99500 9.26600 45.96500
H  41.25100 7.27600 46.21300
H  39.04600 7.15600 50.08300
H  38.48400 8.64500 49.36100
H  39.98200 8.61300 50.18400
Mg 7.14200 57.54600 41.51700
C  6.28900 54.20700 41.28700
C  10.28800 56.72100 40.38900
C  7.81200 60.89700 41.16900
C  3.94100 58.30400 42.53200
N  8.10000 55.73200 40.72500
C  7.55000 54.46800 40.80800
C  8.51900 53.39300 40.32300
C  9.88500 54.17400 40.37000
C  9.39700 55.61300 40.45200
C  10.94100 53.73800 41.48400
C  8.18100 52.71900 38.95500
C  8.31100 51.21100 38.91500
H  9.48100 50.75900 38.05500
N  8.80400 58.60500 40.85800
C  9.98200 58.10200 40.47200
C  10.93200 59.16600 40.19700
C  10.33500 60.40200 40.38100
C  8.90800 60.02900 40.77200
C  12.41400 58.88100 39.65800
C  11.01900 61.80700 40.27800
O  12.22600 61.86700 39.90900
C  10.28000 63.06100 40.55000
N  5.92900 59.42300 41.58100
C  6.46000 60.62400 41.57700
C  5.53200 61.67900 42.14200
C  4.20400 60.94400 42.52900
C  4.70000 59.43900 42.28400
C  6.08200 62.75400 43.13300
C  2.88100 61.24800 41.76800
C  1.64800 60.78800 42.51800
N  5.41300 56.46200 41.84200
C  4.16700 56.89800 42.34900
C  3.34900 55.73600 42.56600
C  4.13900 54.62000 42.19700
C  5.33900 55.15600 41.73800
C  2.01600 55.69000 43.29800
C  4.11700 53.24300 42.14700
O  3.28800 52.39200 42.32200
C  5.50100 52.88200 41.39400
C  5.07100 52.59100 39.95700
O  4.83200 53.42500 39.10500
O  4.99200 51.21300 39.83600
C  4.48800 50.71300 38.56100
H  11.34700 56.50800 40.23000
H  8.09700 61.94400 41.04900
H  2.94700 58.37800 42.97800
H  8.57300 52.63000 41.09900
H  10.29300 54.14500 39.35900
H  11.53300 54.64700 41.59000
H  11.67500 53.00700 41.14400
H  10.53800 53.39000 42.43500
H  8.89800 53.17500 38.27200
H  7.26400 53.03800 38.46000
H  7.37100 50.81600 38.52900
H  8.48000 50.78000 39.90200
H  12.65000 57.83100 39.48000
H  13.15600 59.27900 40.35100
H  12.59000 59.28000 38.66000
H  9.90800 63.04900 41.57400
H  9.55300 63.27700 39.76700
H  11.06400 63.81300 40.63000
H  5.09100 62.35700 41.41100
H  4.06100 60.88100 43.60800
H  7.16900 62.67900 43.08000
H  5.65900 62.68700 44.13600
H  5.85900 63.78200 42.84700
H  2.99200 60.79700 40.78200
H  2.91000 62.32500 41.60300
H  0.83700 61.47100 42.26400
H  1.73700 60.78400 43.60500
H  1.32700 59.82700 42.11600
H  1.67100 54.68100 43.52400
H  1.28900 56.22800 42.69100
H  2.06800 56.22200 44.24800
H  6.04900 52.10100 41.92200
H  3.44600 51.01000 38.44100
H  4.61600 49.63500 38.46900
H  5.02300 51.19800 37.74500


