%nproc=24
%mem=175gb
#p wB97XD/Def2SVP td=(nstates=5)

TDDFT excited states in gaussian

0 1
Mg 26.07000 0.32300 29.17500
C  27.93000 0.00300 32.17200
C  23.23700 0.37300 31.22200
C  24.20000 0.73500 26.50800
C  28.89900 -0.55900 27.35600
N  25.68800 0.23300 31.42600
C  26.58700 0.25300 32.44900
C  25.99300 0.25100 33.86800
C  24.43500 0.24800 33.45400
C  24.48700 0.27000 31.95500
C  23.63400 -1.02300 33.94300
C  26.39900 1.50900 34.70300
C  27.30600 1.47800 35.92700
H  27.07500 2.41400 37.10600
N  24.00400 0.60600 28.87400
C  22.98600 0.52400 29.83500
C  21.72400 0.61300 29.13500
C  21.97300 0.88000 27.79100
C  23.44300 0.80400 27.68300
C  20.46800 0.64800 29.93700
C  21.02800 1.08200 26.60700
O  21.39200 1.28100 25.44400
C  19.58500 1.18400 26.91000
N  26.42900 0.02500 27.20000
C  25.57000 0.46200 26.23000
C  26.30100 0.60400 24.85200
C  27.70600 0.10100 25.15700
C  27.68000 -0.24400 26.67200
C  25.55900 -0.10800 23.67400
C  28.73300 1.18300 24.79000
C  29.96300 0.77300 24.06500
N  28.00500 -0.28200 29.61000
C  29.05600 -0.58000 28.78000
C  30.24500 -0.86800 29.52500
C  29.92400 -0.56000 30.93700
C  28.52000 -0.19800 30.89800
C  31.58600 -1.33700 28.93500
C  30.40700 -0.48700 32.33900
O  31.55800 -0.58600 32.79700
C  29.11500 -0.11100 33.17500
C  29.05800 -1.28400 34.10300
O  28.53100 -2.37500 33.92200
O  29.56000 -0.97800 35.26800
C  29.75400 -2.03800 36.28700
H  22.46700 0.52900 31.98000
H  23.69600 0.81600 25.54300
H  29.79300 -0.76400 26.76400
H  26.26300 -0.69600 34.33700
H  23.82700 1.11200 33.72400
H  24.21800 -1.88400 34.26700
H  22.99700 -1.39000 33.13900
H  22.99100 -0.72400 34.77100
H  25.46900 1.94600 35.06700
H  26.90100 2.23700 34.06700
H  28.23400 1.84700 35.49000
H  27.27900 0.42100 36.19200
H  19.92700 1.58400 29.80500
H  20.67800 0.53600 31.00100
H  19.76300 -0.13800 29.66800
H  19.43300 1.90200 27.71600
H  19.18900 0.27500 27.36300
H  18.97400 1.53500 26.07900
H  26.25300 1.68100 24.69200
H  27.96600 -0.74800 24.52500
H  24.56100 -0.46700 23.92500
H  26.08600 -0.97800 23.28400
H  25.56500 0.53500 22.79400
H  29.00400 1.58600 25.76500
H  28.34900 1.97700 24.15000
H  30.78000 1.14300 24.68400
H  29.93300 1.13400 23.03700
H  30.14200 -0.30200 24.03500
H  31.60000 -2.42600 28.91000
H  32.38900 -0.93100 29.55000
H  31.71700 -1.01400 27.90200
H  29.35100 0.80400 33.71800
H  28.83300 -2.53300 36.59300
H  30.27100 -1.70300 37.18600
H  30.41000 -2.86500 36.01700
Mg 47.67100 15.89000 28.45400
C  45.34400 15.65500 31.04800
C  49.48000 18.07500 30.51500
C  49.68700 16.65900 25.89600
C  45.30600 14.62100 26.30000
N  47.50700 16.71700 30.64000
C  46.40900 16.47700 31.40500
C  46.52000 17.23500 32.78700
C  47.75800 18.22000 32.48000
C  48.27100 17.69900 31.12700
C  47.16600 19.65600 32.25100
C  46.90400 16.16800 33.87700
C  47.20400 16.68600 35.31000
H  48.31600 16.29900 36.23900
N  49.43000 17.01400 28.32000
C  50.06900 17.82700 29.27100
C  51.20000 18.39100 28.66300
C  51.38300 17.85100 27.39700
C  50.14500 17.12800 27.15700
C  52.11500 19.27100 29.45000
C  52.51500 18.07600 26.34100
O  52.57400 17.52300 25.24800
C  53.78800 18.86100 26.66900
N  47.44200 15.76700 26.39600
C  48.48400 16.01700 25.57200
C  48.26000 15.53000 24.12700
C  46.80100 15.00400 24.22400
C  46.51000 15.00800 25.71400
C  48.61100 16.58300 23.02400
C  46.48600 13.65000 23.53100
C  46.96600 12.43800 24.21000
N  45.75600 15.16700 28.59900
C  44.93800 14.69700 27.68600
C  43.69800 14.18000 28.27400
C  43.86300 14.56100 29.64400
C  45.08900 15.18100 29.78600
C  42.77800 13.18000 27.74800
C  43.21100 14.49100 30.94000
O  42.19200 13.93500 31.28200
C  44.14500 15.27600 31.86900
C  43.41900 16.43800 32.55500
O  43.17000 17.49000 32.02600
O  43.04200 16.05500 33.82000
C  42.33900 17.13300 34.55300
H  50.09800 18.64700 31.20900
H  50.41400 16.70200 25.08200
H  44.81200 14.14000 25.45400
H  45.63400 17.83000 33.01000
H  48.52200 18.24600 33.25800
H  47.13800 20.01300 31.22200
H  47.84000 20.42900 32.62100
H  46.16600 19.79300 32.66200
H  47.75800 15.61000 33.49400
H  46.09800 15.43400 33.89800
H  46.24800 16.58700 35.82500
H  47.42100 17.73200 35.09700
H  51.80300 19.48300 30.47300
H  52.34700 20.14300 28.83700
H  53.02500 18.67700 29.53900
H  53.61800 19.92500 26.83400
H  54.61200 18.70300 25.97300
H  54.19200 18.41700 27.57900
H  49.00300 14.73300 24.13500
H  46.20400 15.80500 23.78800
H  49.40000 17.25400 23.36200
H  47.72600 17.18100 22.80500
H  48.98600 16.12600 22.10800
H  46.99700 13.77600 22.57700
H  45.42300 13.59700 23.29500
H  46.25100 12.14600 24.97900
H  47.97200 12.58100 24.60400
H  46.98800 11.57800 23.54000
H  43.37600 12.59600 27.04800
H  41.93300 13.49000 27.13300
H  42.41600 12.61300 28.60500
H  44.52600 14.58100 32.61800
H  41.57800 16.67700 35.18600
H  41.70900 17.79000 33.95300
H  43.02300 17.66800 35.21100


