%nproc=24
%mem=175gb
#p wB97XD/Def2SVP td=(nstates=5)

TDDFT excited states in gaussian

0 1
Mg 53.03600 23.47300 43.74200
C  50.27300 25.68400 43.34900
C  50.89700 20.80500 43.54400
C  55.76900 21.39500 43.06400
C  55.19900 26.21400 43.34600
N  50.76700 23.35900 43.20300
C  49.85000 24.33200 43.33000
C  48.49000 23.71000 43.58900
C  48.66000 22.11500 43.58600
C  50.27200 22.11900 43.58300
C  48.04000 21.54600 44.88200
C  47.47500 24.17900 42.55900
C  47.98000 24.34500 41.10600
H  47.51400 23.28000 40.07600
N  53.32100 21.33300 43.43700
C  52.26200 20.45300 43.38400
C  52.84400 19.14800 43.34900
C  54.26800 19.24400 43.11100
C  54.55100 20.69600 43.23900
C  52.01300 17.88700 43.29400
C  55.22500 18.13300 42.67600
O  54.80000 17.01500 42.45700
C  56.63100 18.33100 42.48800
N  55.16000 23.75300 43.17000
C  56.04500 22.76900 43.10900
C  57.45600 23.24500 42.80400
C  57.16400 24.78400 42.53600
C  55.80000 24.97000 43.09600
C  58.49900 22.99600 44.00000
C  57.34100 25.12500 40.98500
C  58.47200 25.99800 40.52000
N  52.84200 25.47200 43.66600
C  53.82600 26.48100 43.63200
C  53.20700 27.81500 43.74300
C  51.85100 27.50000 43.65700
C  51.62900 26.08900 43.48500
C  53.87500 29.20800 44.01000
C  50.52800 28.13200 43.63200
O  50.14800 29.31100 43.72400
C  49.45600 27.00700 43.45200
C  48.88400 27.41400 42.13800
O  49.50700 27.53100 41.11400
O  47.60700 27.75600 42.28300
C  46.79800 28.12100 41.06800
H  50.22500 19.97800 43.78200
H  56.71400 20.86800 42.91800
H  55.94300 26.97900 43.11200
H  48.29500 24.16100 44.56200
H  48.23100 21.65000 42.69800
H  47.24600 20.85400 44.60200
H  47.57500 22.29200 45.52700
H  48.83900 20.99200 45.37400
H  47.06700 25.14300 42.86300
H  46.65900 23.46100 42.47200
H  49.05000 24.24200 40.92600
H  47.63400 25.33600 40.81200
H  50.94600 18.10600 43.24600
H  52.31600 17.25700 44.13100
H  52.35200 17.31500 42.43100
H  56.90400 19.01600 41.68500
H  57.10100 17.37500 42.25800
H  56.94000 18.76400 43.44000
H  57.86000 22.86500 41.86600
H  58.02800 25.24600 43.01400
H  58.00400 22.45500 44.80700
H  58.78500 23.97500 44.38500
H  59.43300 22.50300 43.72600
H  56.50400 25.71600 40.61300
H  57.40500 24.21500 40.39000
H  58.17800 27.02600 40.30800
H  58.72900 25.47900 39.59600
H  59.39500 25.89600 41.09100
H  54.34600 29.53100 43.08200
H  54.56000 29.07800 44.84800
H  53.08700 29.93100 44.22000
H  48.79600 27.08200 44.31700
H  46.90900 29.16800 40.78500
H  45.73600 27.93300 41.23100
H  47.15900 27.45300 40.28600
Mg 46.63400 24.73200 28.52400
C  47.16600 26.79400 31.26900
C  45.35000 22.41900 30.76700
C  46.57500 22.51000 25.95000
C  48.10800 27.10900 26.49100
N  46.35100 24.60700 30.77200
C  46.60600 25.59200 31.71400
C  46.32600 25.14000 33.20100
C  46.05100 23.60400 32.96700
C  45.94200 23.50100 31.40100
C  47.03100 22.54000 33.47000
C  45.17300 25.95500 33.81500
C  45.53600 26.98000 34.85700
H  44.55500 27.15400 36.03000
N  45.88000 22.81500 28.28900
C  45.34100 22.11500 29.32300
C  44.95500 20.80900 28.75400
C  45.37600 20.75700 27.41600
C  45.95000 22.01600 27.13800
C  44.14400 19.85300 29.53100
C  45.30700 19.63400 26.42300
O  45.62600 19.75900 25.20800
C  44.90700 18.30200 26.75200
N  47.16200 24.82000 26.54200
C  47.02200 23.79200 25.66100
C  47.50000 24.11000 24.29900
C  47.94400 25.61100 24.43200
C  47.78600 25.82800 25.89000
C  48.58100 23.27100 23.55600
C  47.18600 26.64400 23.46000
C  45.80900 27.28400 23.80700
N  47.51200 26.55300 28.75500
C  48.03300 27.42300 27.84100
C  48.30100 28.65400 28.44600
C  48.04200 28.39000 29.84600
C  47.54000 27.10900 29.96100
C  48.74800 29.95300 27.77800
C  47.98400 29.05500 31.11600
O  48.14900 30.19900 31.48800
C  47.61900 27.93100 32.14800
C  48.80500 27.58900 32.95800
O  49.43200 26.50700 32.93800
O  49.23500 28.58100 33.76800
C  50.27600 28.29000 34.81200
H  45.00700 21.67200 31.48500
H  46.61700 21.83300 25.09400
H  48.42100 27.96800 25.89300
H  47.24300 25.06200 33.78600
H  45.06600 23.41800 33.39500
H  47.53600 22.06600 32.62800
H  46.41900 21.72900 33.86200
H  47.76900 22.88500 34.19500
H  44.55000 25.22000 34.32600
H  44.58000 26.37000 33.00000
H  45.61600 27.94300 34.35200
H  46.51600 26.85600 35.31800
H  43.21600 19.75600 28.96900
H  43.90200 20.07100 30.57200
H  44.63900 18.88200 29.54400
H  45.42400 18.07100 27.68300
H  45.01300 17.64200 25.89200
H  43.86100 18.27000 27.05700
H  46.55600 24.02200 23.76200
H  49.01300 25.68800 24.23700
H  48.17600 22.76600 22.67900
H  48.97300 22.47900 24.19500
H  49.46000 23.85000 23.27300
H  47.00900 26.03100 22.57600
H  47.98400 27.36400 23.27800
H  45.45700 27.11300 24.82400
H  45.01200 27.13000 23.07900
H  45.99000 28.35100 23.68400
H  49.68100 30.32800 28.20000
H  47.99600 30.71000 28.00000
H  48.80300 29.90800 26.69000
H  46.94500 28.37300 32.88200
H  50.12900 29.19800 35.39700
H  51.29200 28.18100 34.43400
H  50.01200 27.37900 35.35000


