%nproc=24
%mem=175gb
#p wB97XD/Def2SVP td=(nstates=5)

TDDFT excited states in gaussian

0 1
Mg 3.15800 -0.09400 44.31200
C  5.98100 1.96700 44.12700
C  1.59800 2.25100 42.30500
C  0.53500 -2.15100 44.13700
C  5.14900 -2.67000 45.58500
N  3.88700 1.89700 43.13200
C  5.03800 2.56500 43.33900
C  5.13100 3.86100 42.57000
C  3.59000 4.00400 42.27100
C  2.94600 2.64400 42.52000
C  2.95500 5.03300 43.24400
C  6.13600 3.75500 41.41600
C  6.21000 2.46100 40.57900
H  6.19500 2.64400 39.06600
N  1.34100 0.02700 43.38000
C  0.86600 1.12500 42.71300
C  -0.59800 1.03700 42.63500
C  -0.95100 -0.31800 43.02000
C  0.33900 -0.85500 43.55100
C  -1.47900 2.10800 41.88500
C  -2.32500 -0.98100 42.89500
O  -3.28500 -0.34000 42.56900
C  -2.49000 -2.43600 43.22700
N  2.98400 -2.23900 44.61900
C  1.73200 -2.88100 44.59300
C  1.80300 -4.39600 45.06100
C  3.31600 -4.49100 45.58100
C  3.86000 -3.01900 45.28400
C  0.72300 -4.97700 46.10400
C  4.23400 -5.64500 44.96900
C  5.28000 -6.17800 46.06800
N  5.16300 -0.35600 44.84000
C  5.79800 -1.43100 45.42800
C  7.17100 -1.05900 45.74700
C  7.33000 0.28900 45.33400
C  6.08400 0.65300 44.70700
C  8.16200 -1.87500 46.53500
C  8.23900 1.46700 45.15000
O  9.42700 1.57800 45.35600
C  7.35200 2.56500 44.42300
C  7.28300 3.74500 45.35300
O  8.21800 4.56900 45.51300
O  6.00100 3.85400 45.87200
C  5.72900 5.05600 46.58700
H  1.07500 3.03200 41.74900
H  -0.29600 -2.83600 44.31900
H  5.70000 -3.41500 46.16300
H  5.37600 4.70000 43.22100
H  3.29100 4.31200 41.27000
H  1.94000 4.68000 43.42800
H  3.04000 6.04200 42.84300
H  3.31500 5.08500 44.27200
H  7.12000 3.81500 41.88000
H  5.98200 4.60800 40.75500
H  5.33900 1.84600 40.80400
H  7.15200 1.96400 40.80900
H  -1.46500 2.03800 40.79700
H  -1.16500 3.10900 42.18100
H  -2.53000 2.14700 42.16900
H  -3.47600 -2.80900 42.94800
H  -2.33200 -2.65600 44.28300
H  -1.79700 -2.90200 42.52600
H  1.68700 -4.88400 44.09400
H  3.35000 -4.60600 46.66400
H  -0.10700 -5.37000 45.51800
H  0.37900 -4.20700 46.79400
H  1.20300 -5.75500 46.69800
H  4.88900 -5.25300 44.19100
H  3.62800 -6.44500 44.54300
H  6.30700 -6.00900 45.74400
H  5.13600 -7.24800 46.21500
H  5.31200 -5.69700 47.04500
H  8.31600 -2.82100 46.01700
H  7.75800 -2.08300 47.52600
H  9.13600 -1.39100 46.60500
H  7.97000 2.88400 43.58400
H  4.67500 5.07800 46.86300
H  6.08300 5.93000 46.04000
H  6.20600 5.06600 47.56700
Mg 16.41100 52.36700 25.56600
C  18.01800 50.88800 28.30000
C  13.92400 53.47100 27.63400
C  14.78500 53.43800 22.89200
C  18.97700 50.98900 23.49400
N  16.01700 52.13900 27.73500
C  16.81400 51.56600 28.70100
C  16.31600 51.93200 30.08700
C  14.87100 52.50500 29.80500
C  15.00600 52.79900 28.27200
C  13.75200 51.51700 30.10900
C  17.38000 52.82700 30.82100
C  16.86600 53.42500 32.16000
H  15.83800 52.61100 32.91800
N  14.67300 53.30500 25.31300
C  13.70900 53.59600 26.27000
C  12.51400 54.21500 25.67000
C  12.80900 54.23100 24.27200
C  14.13200 53.63200 24.11700
C  11.36800 54.71200 26.46900
C  11.91000 54.75300 23.18100
O  12.26900 54.77100 21.97100
C  10.56700 55.35400 23.49600
N  16.86500 52.27500 23.47100
C  15.99700 52.81000 22.61200
C  16.44300 52.50800 21.11400
C  17.81800 51.65600 21.31000
C  17.89300 51.61900 22.83700
C  15.27500 51.72000 20.39100
C  19.11700 52.36100 20.72800
C  19.40800 52.10700 19.22100
N  18.08500 51.15100 25.76500
C  19.11600 50.75400 24.87300
C  20.19800 50.00100 25.64600
C  19.78200 49.96200 26.97300
C  18.52400 50.75100 27.00100
C  21.48500 49.44800 25.11900
C  20.10700 49.55500 28.32000
O  21.06000 48.92400 28.78800
C  19.05800 50.30100 29.28500
C  18.45300 49.37700 30.31700
O  17.48000 48.69900 30.12500
O  19.02600 49.59100 31.59100
C  18.26600 49.12100 32.75900
H  13.19300 53.70900 28.41000
H  14.23600 53.78000 22.01200
H  19.73200 50.45400 22.91400
H  16.24800 51.01000 30.66300
H  14.63800 53.45400 30.28900
H  13.10300 52.02100 30.82500
H  14.20000 50.58000 30.43900
H  13.06200 51.39100 29.27500
H  17.73700 53.44800 30.00000
H  18.21600 52.16100 31.03200
H  16.46200 54.39100 31.85700
H  17.72400 53.56200 32.81800
H  10.55700 54.06200 26.14100
H  11.17100 55.77400 26.32500
H  11.38200 54.60100 27.55400
H  10.71400 56.25300 24.09300
H  10.12800 54.49800 24.01000
H  9.92000 55.56900 22.64600
H  16.62800 53.52500 20.76600
H  17.77900 50.58400 21.11200
H  14.41400 51.50600 21.02400
H  15.64500 50.76000 20.03000
H  14.90700 52.39400 19.61800
H  19.98300 52.23400 21.37700
H  18.92400 53.43100 20.79800
H  19.48300 53.08600 18.74900
H  18.62700 51.45900 18.82300
H  20.36100 51.60000 19.06800
H  22.27100 50.10500 25.49200
H  21.46400 49.41600 24.02900
H  21.78400 48.45300 25.44800
H  19.61000 51.11500 29.75400
H  18.44700 48.04700 32.79300
H  17.22900 49.45300 32.70500
H  18.68800 49.63700 33.62100


