%nproc=24
%mem=175gb
#p wB97XD/Def2SVP td=(nstates=5)

TDDFT excited states in gaussian

0 1
Mg 46.36700 34.87300 28.25800
C  44.78600 32.87200 30.57800
C  46.38600 37.42000 30.77600
C  47.55600 36.98300 26.07000
C  45.97900 32.44300 25.82700
N  45.44200 35.14400 30.41100
C  45.07300 34.11700 31.15800
C  45.12500 34.48000 32.66900
C  45.08600 36.04500 32.56800
C  45.67500 36.28100 31.16800
C  43.63100 36.61800 32.70900
C  46.46000 33.91200 33.20000
C  46.69200 34.00900 34.71400
H  45.77100 34.85100 35.57400
N  47.01100 36.84800 28.33900
C  46.96000 37.70200 29.49400
C  47.69800 38.90500 29.13400
C  48.14000 38.73300 27.78500
C  47.54200 37.48800 27.30500
C  47.97900 40.11100 30.10600
C  49.09900 39.67100 26.98000
O  49.27000 39.43700 25.81500
C  49.74700 40.84400 27.64100
N  46.80600 34.69600 26.23000
C  47.30800 35.72100 25.50500
C  47.46400 35.39100 24.02100
C  47.08600 33.89200 23.98700
C  46.58100 33.65400 25.46800
C  46.60500 36.26500 23.03500
C  48.11600 32.92900 23.45400
C  49.59100 32.99000 23.91900
N  45.55600 33.03000 28.12500
C  45.46900 32.14000 27.09300
C  44.91700 30.91500 27.63200
C  44.64100 31.10300 29.03000
C  45.05100 32.44500 29.25900
C  44.67700 29.67800 26.82400
C  44.09100 30.54400 30.21900
O  43.56800 29.43800 30.47700
C  43.93800 31.83400 31.19500
C  44.25300 31.34600 32.61000
O  45.22200 30.77300 32.93400
O  43.18900 31.65700 33.40800
C  43.38400 31.62900 34.84300
H  46.32800 38.21100 31.52600
H  47.90200 37.66100 25.28700
H  45.81100 31.64300 25.10400
H  44.23500 34.14900 33.20400
H  45.76700 36.36500 33.35700
H  43.51000 37.05600 33.69900
H  42.93300 35.79700 32.54400
H  43.41600 37.43400 32.01900
H  47.26100 34.50400 32.75800
H  46.66000 32.91100 32.81900
H  47.74400 34.11200 34.98100
H  46.57400 32.98400 35.06600
H  47.70900 41.07100 29.66500
H  49.03500 40.03600 30.36500
H  47.45400 39.94800 31.04800
H  50.66300 40.94800 27.05900
H  50.08200 40.62400 28.65400
H  49.16800 41.73600 27.88000
H  48.52200 35.54500 23.81000
H  46.16900 33.69700 23.43100
H  46.31700 35.59300 22.22700
H  47.32700 37.01000 22.70000
H  45.80600 36.77400 23.57400
H  48.21500 33.30700 22.43700
H  47.86400 31.86800 23.45400
H  50.35800 33.20100 23.17500
H  49.94100 32.01500 24.25800
H  49.69200 33.75700 24.68700
H  44.20400 28.97200 27.50600
H  45.62900 29.23800 26.52400
H  44.15300 29.83100 25.88100
H  42.91200 32.17200 31.04800
H  42.52900 30.96500 34.97100
H  43.38800 32.61600 35.30600
H  44.28100 31.10000 35.16600
Mg -5.21000 24.54100 27.19500
C  -3.54100 26.38400 29.69300
C  -6.38000 22.49900 29.72600
C  -6.78300 22.59100 24.87600
C  -3.73200 26.39300 24.81700
N  -5.00900 24.47500 29.48500
C  -4.39300 25.40300 30.31600
C  -4.77800 25.15700 31.76100
C  -5.38000 23.70500 31.74000
C  -5.61200 23.56800 30.25200
C  -4.48700 22.58300 32.40100
C  -5.82800 26.14800 32.28500
C  -5.66000 26.57200 33.74800
H  -5.92800 25.52000 34.86000
N  -6.48000 22.85300 27.28100
C  -6.76500 22.19100 28.42600
C  -7.52200 21.02600 28.10100
C  -7.81700 21.04500 26.69400
C  -6.98500 22.14200 26.23200
C  -7.94700 20.03100 29.14500
C  -8.63000 20.10000 25.80900
O  -8.90700 20.38500 24.62300
C  -9.08700 18.72400 26.28000
N  -5.32000 24.55800 25.17000
C  -5.97300 23.61500 24.38200
C  -5.69900 23.91000 22.94300
C  -4.77200 25.17400 22.83700
C  -4.60800 25.45200 24.34000
C  -5.24900 22.67900 22.10000
C  -5.37300 26.38000 22.08300
C  -4.94400 26.45700 20.60500
N  -3.89500 26.01800 27.18100
C  -3.38100 26.77900 26.13200
C  -2.50100 27.90900 26.61000
C  -2.55000 27.71500 28.00000
C  -3.42600 26.62300 28.30100
C  -1.78700 28.93500 25.74900
C  -2.03300 28.27400 29.24000
O  -1.24900 29.20200 29.44300
C  -2.78100 27.47500 30.39000
C  -1.66500 26.98400 31.33300
O  -0.58100 26.54900 31.00300
O  -2.03300 27.27600 32.64500
C  -1.03300 26.85400 33.62600
H  -6.79600 21.92300 30.55500
H  -7.24600 22.04300 24.05300
H  -3.20100 26.86300 23.98700
H  -3.94200 25.15700 32.46000
H  -6.32400 23.59600 32.27400
H  -3.58700 22.93500 32.90600
H  -4.09000 21.81900 31.73300
H  -5.03500 22.07100 33.19200
H  -6.83700 25.75100 32.17600
H  -5.77900 27.08800 31.73500
H  -6.23400 27.46900 33.98000
H  -4.65000 26.93300 33.94100
H  -7.01100 19.85400 29.67500
H  -8.29300 19.05500 28.80500
H  -8.67800 20.40400 29.86200
H  -8.25700 18.16700 26.71500
H  -9.45700 18.28200 25.35500
H  -9.85300 18.80700 27.05100
H  -6.66900 24.06000 22.46800
H  -3.77200 24.98400 22.44500
H  -5.16100 21.82900 22.77700
H  -4.26700 22.88500 21.67500
H  -6.05700 22.54500 21.38000
H  -5.16500 27.26900 22.67800
H  -6.45400 26.27700 21.98600
H  -4.65800 25.46600 20.25200
H  -4.05700 27.05100 20.38400
H  -5.81000 26.77000 20.02100
H  -2.54700 29.61400 25.36200
H  -1.26100 28.53800 24.88100
H  -1.10500 29.45700 26.42000
H  -3.50500 28.04800 30.96900
H  -1.16000 25.83800 34.00100
H  -1.12400 27.59400 34.42100
H  0.01800 26.83100 33.33800


