%nproc=24
%mem=175gb
#p wB97XD/Def2SVP td=(nstates=5)

TDDFT excited states in gaussian

0 1
Mg 48.00100 15.36700 27.57000
C  45.75200 15.79400 30.49800
C  50.04400 17.47200 29.24900
C  49.70300 15.15900 24.90400
C  45.19600 13.91000 25.93200
N  47.85300 16.51500 29.59600
C  46.96000 16.37600 30.64500
C  47.41800 17.01300 31.96200
C  48.55800 17.91800 31.40100
C  48.86700 17.29700 29.98400
C  48.22700 19.37400 31.30400
C  47.82300 16.04400 33.12300
C  47.60700 16.50100 34.52700
H  48.68000 16.07500 35.52400
N  49.72200 16.17900 27.12000
C  50.48900 17.00200 27.97100
C  51.76400 17.20600 27.34600
C  51.69700 16.38300 26.13900
C  50.37000 15.89100 26.04500
C  52.97000 17.98900 27.98500
C  52.83500 16.13800 25.19600
O  52.69500 15.47100 24.14200
C  54.21900 16.61300 25.45000
N  47.52500 14.80200 25.63500
C  48.43700 14.77900 24.66100
C  47.90800 14.19700 23.31100
C  46.65000 13.42700 23.86100
C  46.39500 14.11500 25.23000
C  47.50200 15.31900 22.30200
C  46.93500 11.88100 24.07400
C  47.49500 11.04500 22.90400
N  45.91900 14.88800 28.08600
C  44.96000 14.24100 27.31500
C  43.72700 14.13900 28.06000
C  44.00400 14.69600 29.31500
C  45.32400 15.22300 29.27200
C  42.47900 13.44100 27.63500
C  43.42900 14.97200 30.62500
O  42.35300 14.72000 31.15100
C  44.65500 15.63100 31.44600
C  44.12500 16.85400 32.02400
O  43.69700 17.84400 31.41000
O  43.76300 16.58100 33.31200
C  43.14800 17.60200 34.09800
H  50.71300 18.03200 29.90600
H  50.25500 15.06200 23.96700
H  44.37700 13.44100 25.38200
H  46.60300 17.64800 32.31000
H  49.48300 17.75400 31.95300
H  48.08000 19.59600 30.24700
H  49.08100 19.96700 31.63100
H  47.34400 19.72300 31.83900
H  48.89700 15.88200 33.03600
H  47.33700 15.08800 32.93000
H  46.66100 16.03500 34.80200
H  47.32400 17.55200 34.58700
H  53.79100 17.37200 28.34900
H  52.63200 18.67300 28.76300
H  53.29200 18.60300 27.14300
H  54.25300 17.68500 25.25400
H  54.84800 16.07400 24.74100
H  54.46700 16.31100 26.46700
H  48.71600 13.57900 22.91800
H  45.74000 13.52600 23.27000
H  48.21500 15.26400 21.47900
H  47.43200 16.32600 22.71200
H  46.52600 14.96500 21.96700
H  45.99300 11.38800 24.31300
H  47.54700 11.81000 24.97300
H  48.43400 10.64000 23.28100
H  47.70000 11.78200 22.12700
H  46.83000 10.23200 22.61300
H  42.78200 12.85500 26.76700
H  41.77900 14.22600 27.34900
H  42.00600 12.85500 28.42300
H  44.98300 14.94300 32.22500
H  43.06700 18.54100 33.55000
H  43.82900 17.76200 34.93400
H  42.21500 17.25400 34.53900
Mg 8.73000 48.00700 24.72600
C  6.54700 48.35400 27.54300
C  11.38500 48.83200 26.74200
C  10.78900 48.16000 22.05300
C  5.85600 48.14800 22.68600
N  8.91100 48.51400 26.88400
C  7.92400 48.53400 27.88200
C  8.57600 48.79800 29.21500
C  9.96600 49.43600 28.79200
C  10.09000 48.94100 27.32100
C  9.83300 50.99700 28.89900
C  8.62100 47.55100 30.16700
C  8.25400 47.92900 31.51300
H  7.91700 46.69900 32.49700
N  10.84000 48.27700 24.55100
C  11.74400 48.56500 25.49500
C  13.05300 48.54500 24.91800
C  12.92300 48.37200 23.55600
C  11.42000 48.19500 23.29600
C  14.33000 48.90700 25.74100
C  14.02400 48.24600 22.48300
O  13.70400 48.13100 21.32700
C  15.48100 48.17400 22.87500
N  8.33400 48.41200 22.66100
C  9.38600 48.28200 21.76100
C  8.87500 48.15200 20.36300
C  7.28100 48.12500 20.55900
C  7.12600 48.16700 22.06100
C  9.40100 49.20400 19.44600
C  6.46300 46.89200 19.88400
C  5.44500 47.20900 18.86100
N  6.61400 48.15800 24.98900
C  5.61400 48.20500 24.04400
C  4.27700 48.23000 24.78200
C  4.59000 48.17400 26.15500
C  6.02700 48.18500 26.22900
C  2.90700 48.32700 24.09700
C  3.98700 48.26800 27.45000
O  2.78100 48.32100 27.78100
C  5.21700 48.56000 28.40400
C  5.00500 47.63900 29.64300
O  5.64000 46.57500 29.76100
O  4.15000 48.22900 30.51400
C  3.80400 47.24100 31.59300
H  12.25300 48.87100 27.40400
H  11.43600 48.18800 21.17300
H  4.90900 48.09600 22.14500
H  8.00400 49.60800 29.66700
H  10.77600 49.10700 29.44200
H  9.23900 51.44000 28.10000
H  10.83100 51.43100 28.94300
H  9.35800 51.24300 29.84900
H  9.67300 47.28200 30.26500
H  8.05700 46.70900 29.76500
H  7.29600 48.44900 31.52800
H  9.07600 48.51700 31.92200
H  14.96900 48.03700 25.59000
H  14.16900 49.02000 26.81300
H  14.74800 49.84700 25.38100
H  16.11600 48.17200 21.98900
H  15.42200 47.21200 23.38400
H  15.69700 49.01800 23.53000
H  9.23500 47.16500 20.07200
H  6.89900 49.04100 20.10900
H  10.07700 48.66800 18.78100
H  10.03800 49.93000 19.95100
H  8.64800 49.76300 18.89000
H  5.91200 46.49600 20.73700
H  7.19200 46.14700 19.56800
H  4.44900 46.91600 19.19200
H  5.77800 46.47600 18.12700
H  5.55100 48.21100 18.44300
H  2.66500 49.38900 24.07600
H  2.13000 47.78700 24.63800
H  2.97200 47.86900 23.11000
H  5.09400 49.61500 28.64500
H  3.12300 46.44700 31.28700
H  3.39400 47.68200 32.50100
H  4.75700 46.82700 31.92300


