%nproc=24
%mem=175gb
#p wB97XD/Def2SVP td=(nstates=5)

TDDFT excited states in gaussian

0 1
Mg 25.94600 0.51000 29.41700
C  27.75500 0.04800 32.42200
C  23.08400 0.98300 31.28700
C  24.18800 0.65700 26.52400
C  28.83500 -0.18800 27.55800
N  25.56000 0.39300 31.59400
C  26.46800 0.41400 32.65000
C  25.73500 0.61600 34.03900
C  24.24300 0.62700 33.61200
C  24.25900 0.61600 32.06700
C  23.30400 -0.50900 34.16600
C  26.25400 1.80200 34.95100
C  26.76400 1.39400 36.30000
H  26.45300 2.38700 37.48900
N  23.95800 0.76900 29.03000
C  22.92100 1.01800 29.90600
C  21.67800 1.14300 29.16100
C  21.94400 1.05800 27.76500
C  23.43600 0.83800 27.70800
C  20.32000 1.49500 29.80100
C  21.00100 1.19500 26.57400
O  21.36800 1.18900 25.41700
C  19.44600 1.46900 26.69600
N  26.43900 0.16900 27.31600
C  25.54800 0.29300 26.34100
C  26.18900 0.06900 24.92500
C  27.73100 -0.01000 25.26000
C  27.69500 0.01500 26.81800
C  25.54500 -1.13400 24.17700
C  28.51900 1.10000 24.59300
C  29.85400 0.64900 24.00300
N  27.89800 -0.11200 29.79400
C  28.99000 -0.26300 28.96100
C  30.08800 -0.69100 29.77200
C  29.69800 -0.55100 31.12700
C  28.32100 -0.19300 31.11800
C  31.42300 -1.10700 29.28200
C  30.17600 -0.59300 32.52000
O  31.23000 -0.96300 33.02900
C  28.81000 -0.12800 33.44600
C  28.50200 -1.15100 34.39600
O  27.57900 -1.93000 34.29600
O  29.31100 -1.04800 35.50500
C  29.06500 -2.12600 36.49500
H  22.18200 1.26000 31.83700
H  23.66500 0.64600 25.56600
H  29.70300 -0.30600 26.90500
H  25.82900 -0.35200 34.53000
H  23.76600 1.56200 33.90600
H  22.35300 -0.03400 34.40900
H  23.77900 -0.95200 35.04100
H  23.10600 -1.31400 33.45800
H  25.42400 2.50500 35.02300
H  27.09400 2.25600 34.42500
H  27.85000 1.29700 36.26800
H  26.30600 0.41800 36.45800
H  20.08400 2.49100 29.42800
H  20.46000 1.63600 30.87300
H  19.49000 0.83300 29.55100
H  19.31200 2.38400 27.27400
H  18.87900 0.57700 26.96400
H  19.10200 1.53100 25.66400
H  26.08400 0.92600 24.26000
H  28.04800 -1.00900 24.96000
H  26.34500 -1.78700 23.82700
H  24.86300 -0.83400 23.38100
H  24.93000 -1.70700 24.86900
H  28.70300 1.93600 25.26700
H  27.98200 1.61200 23.79300
H  30.10400 -0.36600 24.31200
H  30.60900 1.32100 24.41200
H  29.90400 0.79600 22.92400
H  31.58400 -1.10700 28.20400
H  31.68500 -2.00300 29.84600
H  32.04200 -0.24000 29.51400
H  29.03700 0.80200 33.96800
H  29.24700 -3.09800 36.03600
H  28.05200 -1.96800 36.86500
H  29.74500 -2.08500 37.34500
Mg 40.54200 8.71200 29.57000
C  42.46900 10.35300 31.83700
C  38.24000 7.70200 31.93300
C  38.87500 6.96300 27.14400
C  43.10200 9.33000 27.08900
N  40.50700 8.83000 31.66000
C  41.28100 9.79100 32.39300
C  40.70700 10.01900 33.73400
C  39.62800 8.84800 33.81600
C  39.41100 8.39300 32.39000
C  40.09700 7.61800 34.74300
C  40.24300 11.48300 34.00600
C  40.64100 12.04200 35.33400
H  40.55300 11.05000 36.56000
N  38.75400 7.55700 29.53000
C  38.00600 7.28200 30.63600
C  36.89200 6.50300 30.21600
C  36.97400 6.32300 28.78000
C  38.23000 7.03300 28.36500
C  35.87900 5.90900 31.21900
C  36.08100 5.65900 27.77900
O  36.28700 5.46300 26.57600
C  34.68000 5.19900 28.33400
N  40.98100 8.10600 27.39000
C  40.09800 7.49500 26.64000
C  40.46000 7.54300 25.15700
C  41.81600 8.30500 25.16100
C  42.00400 8.59400 26.64900
C  40.56900 6.08800 24.47000
C  41.66000 9.63200 24.29500
C  40.74000 10.78700 24.76200
N  42.48900 9.50900 29.49800
C  43.34000 9.72700 28.43100
C  44.44800 10.55700 28.94600
C  44.20300 10.86700 30.25000
C  42.96700 10.18300 30.54000
C  45.69600 10.84800 28.18600
C  44.66700 11.56800 31.44700
O  45.66700 12.23600 31.65000
C  43.53700 11.23400 32.51700
C  44.17900 10.46300 33.60100
O  44.82400 9.40400 33.50900
O  43.90700 11.19500 34.73900
C  44.28800 10.53200 35.99300
H  37.46200 7.40700 32.64000
H  38.23300 6.48700 26.39900
H  43.84700 9.59300 26.33600
H  41.53500 9.82500 34.41700
H  38.70200 9.27400 34.20100
H  40.95100 7.85100 35.37900
H  40.49700 6.86600 34.06300
H  39.17400 7.30300 35.22800
H  39.15600 11.54000 33.94800
H  40.73700 12.04000 33.21000
H  39.99600 12.85500 35.66500
H  41.60800 12.52200 35.48500
H  35.14900 6.60800 31.62700
H  36.53200 5.46300 31.96900
H  35.20300 5.18600 30.76300
H  34.82100 4.32000 28.96300
H  33.98600 5.15200 27.49500
H  34.17100 5.96300 28.92200
H  39.71300 8.14400 24.63900
H  42.64100 7.73100 24.73900
H  39.67900 5.98600 23.84800
H  40.55600 5.31000 25.23400
H  41.39700 5.86900 23.79700
H  41.39900 9.47200 23.24900
H  42.67000 10.03800 24.36000
H  41.45000 11.59500 24.93900
H  40.14900 10.52600 25.63900
H  40.01100 11.10100 24.01500
H  45.97000 11.83700 28.55200
H  45.54800 10.83600 27.10600
H  46.48500 10.23100 28.61400
H  43.32700 12.24400 32.86800
H  44.09900 11.31400 36.72900
H  45.36500 10.37600 35.93100
H  43.84100 9.55300 36.16700


