%nproc=24
%mem=175gb
#p wB97XD/Def2SVP td=(nstates=5)

TDDFT excited states in gaussian

0 1
Mg 24.45900 -7.80400 45.73000
C  26.58600 -5.04500 44.57700
C  21.88700 -6.07400 44.19000
C  22.84100 -10.55200 45.75100
C  27.52200 -9.37000 46.76800
N  24.34300 -5.76600 44.35600
C  25.30500 -4.83000 44.04500
C  24.68800 -3.74900 43.08400
C  23.16700 -3.94300 43.21100
C  23.11900 -5.33100 43.95600
C  22.33200 -2.87300 44.03000
C  25.23700 -3.82200 41.61800
C  25.48800 -2.49900 40.92700
H  24.41700 -2.03400 39.89100
N  22.60400 -8.23500 45.19100
C  21.64700 -7.40100 44.68000
C  20.38100 -8.15500 44.46900
C  20.67900 -9.47200 44.90600
C  22.09500 -9.47000 45.26500
C  19.08200 -7.63000 43.83600
C  19.81800 -10.73300 44.78900
O  18.67600 -10.59500 44.35900
C  20.22700 -12.02800 45.16700
N  25.20700 -9.77600 45.95500
C  24.19400 -10.69000 46.16700
C  24.84300 -12.02000 46.71400
C  26.38100 -11.70100 46.72900
C  26.35300 -10.16200 46.56900
C  24.30300 -12.52000 48.08200
C  27.32200 -12.42400 45.68300
C  27.76100 -13.86800 45.98200
N  26.63200 -7.37200 45.76700
C  27.69000 -8.05400 46.33400
C  28.89800 -7.26500 46.33900
C  28.50100 -6.05100 45.66300
C  27.12300 -6.13300 45.25800
C  30.21600 -7.74700 46.86200
C  28.99300 -4.84100 45.17500
O  30.13700 -4.41700 45.08200
C  27.84800 -4.18900 44.34700
C  27.67100 -2.81900 44.95900
O  27.62100 -1.78000 44.29600
O  27.39300 -2.80300 46.38500
C  26.88100 -1.51100 46.83900
H  21.04400 -5.51700 43.77700
H  22.37000 -11.50900 45.98500
H  28.34500 -9.94300 47.20000
H  24.83100 -2.76600 43.53500
H  22.69900 -4.12200 42.24300
H  21.79800 -2.30300 43.27000
H  22.98800 -2.17400 44.54800
H  21.67600 -3.27700 44.80100
H  24.55300 -4.27200 40.89800
H  26.19500 -4.34200 41.59800
H  26.49400 -2.54600 40.51000
H  25.50300 -1.72600 41.69600
H  18.22200 -8.02700 44.37600
H  19.15100 -7.95200 42.79700
H  19.01200 -6.54700 43.92800
H  20.35400 -12.03800 46.25000
H  21.09800 -12.40800 44.63300
H  19.40000 -12.62300 44.77800
H  24.71500 -12.87500 46.05100
H  26.80800 -11.85300 47.72000
H  25.17900 -12.58000 48.72800
H  23.87600 -13.51200 47.93800
H  23.57100 -11.76000 48.35800
H  28.20300 -11.78200 45.65400
H  26.82800 -12.52100 44.71600
H  27.32600 -14.00800 46.97200
H  28.83900 -13.92900 46.13800
H  27.42200 -14.64300 45.29500
H  30.43000 -8.65700 46.30300
H  30.17700 -8.08000 47.89900
H  31.04400 -7.08900 46.59800
H  28.22500 -4.06500 43.33200
H  26.34600 -1.90700 47.70300
H  26.35400 -0.97600 46.04900
H  27.73900 -0.96400 47.23000
Mg 26.07000 0.32300 29.17500
C  27.93000 0.00300 32.17200
C  23.23700 0.37300 31.22200
C  24.20000 0.73500 26.50800
C  28.89900 -0.55900 27.35600
N  25.68800 0.23300 31.42600
C  26.58700 0.25300 32.44900
C  25.99300 0.25100 33.86800
C  24.43500 0.24800 33.45400
C  24.48700 0.27000 31.95500
C  23.63400 -1.02300 33.94300
C  26.39900 1.50900 34.70300
C  27.30600 1.47800 35.92700
H  27.07500 2.41400 37.10600
N  24.00400 0.60600 28.87400
C  22.98600 0.52400 29.83500
C  21.72400 0.61300 29.13500
C  21.97300 0.88000 27.79100
C  23.44300 0.80400 27.68300
C  20.46800 0.64800 29.93700
C  21.02800 1.08200 26.60700
O  21.39200 1.28100 25.44400
C  19.58500 1.18400 26.91000
N  26.42900 0.02500 27.20000
C  25.57000 0.46200 26.23000
C  26.30100 0.60400 24.85200
C  27.70600 0.10100 25.15700
C  27.68000 -0.24400 26.67200
C  25.55900 -0.10800 23.67400
C  28.73300 1.18300 24.79000
C  29.96300 0.77300 24.06500
N  28.00500 -0.28200 29.61000
C  29.05600 -0.58000 28.78000
C  30.24500 -0.86800 29.52500
C  29.92400 -0.56000 30.93700
C  28.52000 -0.19800 30.89800
C  31.58600 -1.33700 28.93500
C  30.40700 -0.48700 32.33900
O  31.55800 -0.58600 32.79700
C  29.11500 -0.11100 33.17500
C  29.05800 -1.28400 34.10300
O  28.53100 -2.37500 33.92200
O  29.56000 -0.97800 35.26800
C  29.75400 -2.03800 36.28700
H  22.46700 0.52900 31.98000
H  23.69600 0.81600 25.54300
H  29.79300 -0.76400 26.76400
H  26.26300 -0.69600 34.33700
H  23.82700 1.11200 33.72400
H  24.21800 -1.88400 34.26700
H  22.99700 -1.39000 33.13900
H  22.99100 -0.72400 34.77100
H  25.46900 1.94600 35.06700
H  26.90100 2.23700 34.06700
H  28.23400 1.84700 35.49000
H  27.27900 0.42100 36.19200
H  19.92700 1.58400 29.80500
H  20.67800 0.53600 31.00100
H  19.76300 -0.13800 29.66800
H  19.43300 1.90200 27.71600
H  19.18900 0.27500 27.36300
H  18.97400 1.53500 26.07900
H  26.25300 1.68100 24.69200
H  27.96600 -0.74800 24.52500
H  24.56100 -0.46700 23.92500
H  26.08600 -0.97800 23.28400
H  25.56500 0.53500 22.79400
H  29.00400 1.58600 25.76500
H  28.34900 1.97700 24.15000
H  30.78000 1.14300 24.68400
H  29.93300 1.13400 23.03700
H  30.14200 -0.30200 24.03500
H  31.60000 -2.42600 28.91000
H  32.38900 -0.93100 29.55000
H  31.71700 -1.01400 27.90200
H  29.35100 0.80400 33.71800
H  28.83300 -2.53300 36.59300
H  30.27100 -1.70300 37.18600
H  30.41000 -2.86500 36.01700


