%nproc=24
%mem=175gb
#p wB97XD/Def2SVP td=(nstates=5)

TDDFT excited states in gaussian

0 1
Mg 46.69300 44.58300 44.38700
C  43.25500 44.72400 43.60300
C  46.82600 41.39700 42.97300
C  50.08000 44.92600 44.22900
C  46.41600 48.03600 45.29800
N  45.21700 43.25300 43.45800
C  43.91500 43.52200 43.22400
C  43.24400 42.37600 42.39900
C  44.33300 41.22100 42.58000
C  45.59600 41.99100 43.08500
C  44.09700 40.05700 43.56900
C  43.05200 42.86300 40.91300
C  41.75200 42.34300 40.23900
H  41.89600 41.90400 38.72500
N  48.30200 43.23100 43.87300
C  48.09600 41.97500 43.36700
C  49.37200 41.38600 43.21500
C  50.37100 42.36600 43.49200
C  49.61800 43.58400 43.94300
C  49.62300 39.97500 42.73800
C  51.83400 42.25100 43.23000
O  52.31500 41.27900 42.67000
C  52.80700 43.26800 43.53300
N  48.03900 46.33200 44.62600
C  49.42400 46.11300 44.66400
C  50.13700 47.33600 45.15000
C  48.99300 48.37700 45.43900
C  47.74400 47.57600 45.11400
C  50.98200 46.96700 46.37600
C  49.23100 49.78300 44.77000
C  49.25400 50.97200 45.68200
N  45.14700 46.13000 44.49400
C  45.21100 47.43000 44.93200
C  43.85400 48.01300 45.01800
C  43.09500 46.96600 44.43100
C  43.89400 45.85700 44.22500
C  43.42700 49.41800 45.41300
C  41.78600 46.66700 43.91400
O  40.77400 47.38200 43.84700
C  41.78000 45.23600 43.37700
C  40.72900 44.42700 44.02200
O  39.86700 43.90600 43.41200
O  40.96200 44.18000 45.34400
C  40.02400 43.15900 45.85900
H  46.89000 40.36900 42.60900
H  51.17100 44.93400 44.24400
H  46.14300 49.07400 45.50200
H  42.28400 42.14500 42.86100
H  44.78800 40.86200 41.65700
H  43.41900 40.36700 44.36500
H  44.98600 39.61600 44.02000
H  43.58300 39.28600 42.99600
H  43.92400 42.61300 40.30800
H  43.01600 43.95000 40.98600
H  41.07000 43.18900 40.32600
H  41.42600 41.56000 40.92400
H  50.58400 39.53700 43.00800
H  49.53400 40.05600 41.65500
H  48.81600 39.25800 42.88900
H  52.77800 43.41800 44.61300
H  52.61000 44.18200 42.97200
H  53.79000 42.90400 43.23400
H  50.70700 47.79400 44.34200
H  48.71000 48.54100 46.47900
H  51.11500 45.89200 46.50000
H  50.52200 47.31200 47.30200
H  52.01900 47.25200 46.20100
H  48.42600 49.87600 44.04100
H  50.21400 49.89500 44.31400
H  48.51600 51.67900 45.30400
H  50.21500 51.48600 45.65500
H  49.14300 50.70900 46.73400
H  43.51500 50.13100 44.59300
H  43.93200 49.78600 46.30700
H  42.35600 49.27300 45.55400
H  41.46600 45.23800 42.33400
H  40.25400 43.00100 46.91300
H  40.12100 42.22900 45.29900
H  38.98500 43.48400 45.90100
Mg -0.18700 43.41100 24.93300
C  1.60700 43.07600 28.07200
C  -2.89800 42.36800 26.64400
C  -1.73200 43.65500 22.14800
C  2.88800 44.15900 23.34500
N  -0.58100 42.80100 27.23000
C  0.26100 42.84200 28.27700
C  -0.50600 42.58400 29.58800
C  -1.80900 41.92300 28.93700
C  -1.80000 42.43200 27.55700
C  -2.07500 40.44900 29.19300
C  -0.70200 43.92400 30.31800
C  -0.86900 43.75600 31.85700
H  -0.56100 42.38900 32.62600
N  -2.11500 43.10200 24.42900
C  -3.10300 42.58200 25.24300
C  -4.30800 42.41600 24.43600
C  -4.00300 42.86400 23.12700
C  -2.55900 43.22400 23.20800
C  -5.57100 41.87400 24.94000
C  -4.95600 43.00700 21.82800
O  -4.58400 43.57000 20.83500
C  -6.46400 42.70700 21.90000
N  0.55900 43.58500 22.97300
C  -0.33400 43.81600 22.01400
C  0.26300 44.22400 20.69400
C  1.62800 44.75300 21.19800
C  1.73900 43.97100 22.55200
C  0.44200 43.02300 19.65300
C  1.76200 46.32800 21.33100
C  0.94100 47.25900 20.39200
N  1.83500 43.48300 25.49800
C  2.95000 43.84600 24.81700
C  4.05200 43.97800 25.65800
C  3.57000 43.63900 26.89000
C  2.22100 43.36000 26.79400
C  5.44000 44.46500 25.25100
C  4.00800 43.52200 28.28900
O  5.10800 43.51800 28.82100
C  2.67500 43.22200 29.10400
C  2.92200 42.05100 29.92700
O  2.92900 40.87200 29.55900
O  3.40200 42.49600 31.10700
C  4.04200 41.44600 31.87900
H  -3.71800 41.86000 27.15600
H  -2.28400 43.68900 21.20700
H  3.79200 44.48700 22.82800
H  -0.02300 41.81500 30.19100
H  -2.65500 42.40200 29.42800
H  -2.95800 40.29300 29.81200
H  -1.21600 39.99100 29.68300
H  -2.18500 39.85300 28.28700
H  -1.65600 44.33500 29.98700
H  0.05400 44.67300 30.08300
H  -1.83500 44.12700 32.20100
H  -0.27300 44.58700 32.23400
H  -5.66200 41.99700 26.01900
H  -5.55700 40.82000 24.66200
H  -6.45800 42.34700 24.51800
H  -7.01900 43.39100 22.54200
H  -6.51800 41.64400 22.13600
H  -6.89500 42.73900 20.89900
H  -0.45600 44.95300 20.32100
H  2.46400 44.44400 20.57100
H  0.05400 43.47000 18.73800
H  -0.13700 42.13000 19.89100
H  1.46800 42.71200 19.46000
H  2.81700 46.59200 21.27300
H  1.31000 46.48200 22.31100
H  -0.04700 47.44600 20.81200
H  0.97500 46.73900 19.43400
H  1.44300 48.20900 20.21200
H  5.25700 45.13800 24.41300
H  6.07800 43.67100 24.86400
H  5.88500 44.97700 26.10400
H  2.48900 44.10200 29.72100
H  4.45500 41.79500 32.82500
H  4.72400 40.78900 31.33900
H  3.30000 40.72800 32.23000


