%nproc=24
%mem=175gb
#p wB97XD/Def2SVP td=(nstates=5)

TDDFT excited states in gaussian

0 1
Mg 44.80500 2.87200 46.67800
C  42.56400 5.57100 46.81800
C  42.13800 0.79200 46.35700
C  47.01300 0.52400 46.12300
C  47.34200 5.37800 46.17800
N  42.64100 3.17100 46.66900
C  41.94200 4.34400 46.71700
C  40.48300 4.04900 46.33800
C  40.34000 2.59000 46.75700
C  41.78900 2.14300 46.48400
C  39.96100 2.42600 48.24700
C  40.23600 4.25700 44.79800
C  39.26900 5.45400 44.33400
H  39.83900 6.57400 43.44700
N  44.60700 0.93700 46.23600
C  43.41900 0.24600 46.16900
C  43.72000 -1.14400 46.02500
C  45.14200 -1.32500 46.06900
C  45.67600 0.06600 46.14000
C  42.62100 -2.25300 45.89000
C  45.87200 -2.71700 46.06400
O  45.23700 -3.72500 46.11700
C  47.31400 -2.74100 46.27700
N  46.83800 2.95400 45.90000
C  47.54500 1.82700 46.15300
C  49.01900 2.09000 46.41200
C  49.17500 3.56200 46.06200
C  47.67600 4.02200 46.03300
C  49.44600 1.78300 47.89500
C  49.96600 3.97900 44.73400
C  51.33300 4.60700 44.78400
N  45.00300 4.99200 46.72600
C  46.07700 5.86500 46.51000
C  45.65700 7.24900 46.55200
C  44.29400 7.16900 46.69900
C  43.89900 5.79300 46.77900
C  46.53700 8.41600 46.37700
C  43.08200 7.96600 46.81100
O  42.95000 9.19400 46.88400
C  41.94500 6.98400 47.00000
C  41.32800 7.26400 48.36600
O  42.00600 7.20100 49.38900
O  40.00100 7.70700 48.25300
C  39.36700 8.02300 49.50500
H  41.26200 0.14300 46.41400
H  47.71200 -0.30200 46.26300
H  48.13300 6.13000 46.13700
H  39.87300 4.80700 46.83000
H  39.59400 2.12600 46.11300
H  39.12500 1.73800 48.12600
H  39.66800 3.42600 48.56800
H  40.73100 2.03300 48.91100
H  39.76200 3.35000 44.42300
H  41.21000 4.30800 44.31200
H  38.98200 5.96200 45.25500
H  38.33700 5.13200 43.87100
H  42.71600 -2.97100 45.07600
H  41.68000 -1.71700 45.76200
H  42.51800 -2.85500 46.79300
H  47.88700 -2.17400 45.54300
H  47.64600 -3.77900 46.25800
H  47.54400 -2.49600 47.31300
H  49.67000 1.44400 45.82200
H  49.62700 4.10200 46.89400
H  49.91800 0.80800 48.01500
H  48.60400 1.96800 48.56200
H  50.20200 2.52100 48.16700
H  49.41200 4.48800 43.94600
H  50.09500 2.95900 44.37100
H  52.11800 3.97300 44.37300
H  51.60000 4.81700 45.82000
H  51.22600 5.52900 44.21300
H  47.39900 8.09600 45.79100
H  46.88900 8.66700 47.37800
H  45.99500 9.26600 45.96500
H  41.25100 7.27600 46.21300
H  39.04600 7.15600 50.08300
H  38.48400 8.64500 49.36100
H  39.98200 8.61300 50.18400
Mg -2.59000 34.01700 26.79400
C  -3.62000 32.41400 29.77300
C  -1.15300 36.45800 28.71900
C  -2.20600 35.82500 24.04600
C  -4.51700 31.70900 25.00200
N  -2.55200 34.47200 29.00300
C  -2.95200 33.59300 30.01300
C  -2.37700 34.05700 31.37400
C  -1.60200 35.37500 31.00700
C  -1.71600 35.46600 29.46000
C  -1.91400 36.61400 31.82800
C  -1.50900 33.04200 32.13400
C  -1.98900 32.76400 33.58500
H  -0.95800 32.99700 34.66700
N  -1.70200 35.86000 26.44900
C  -1.19200 36.74900 27.34900
C  -0.55100 37.80700 26.60500
C  -0.98500 37.71000 25.21400
C  -1.68000 36.43200 25.23200
C  0.22600 39.02700 27.32500
C  -1.03600 38.70200 24.13300
O  -1.40600 38.53400 23.00600
C  -0.57600 40.11000 24.49900
N  -3.46600 33.87800 24.82300
C  -3.08300 34.73100 23.85300
C  -3.52500 34.22200 22.47900
C  -3.92700 32.76700 22.76900
C  -3.94500 32.73700 24.28100
C  -4.74000 35.08300 21.90100
C  -2.77000 31.79500 22.20500
C  -1.44300 31.78800 23.01200
N  -3.75200 32.29300 27.19100
C  -4.44100 31.48200 26.37200
C  -5.05500 30.45500 27.17000
C  -4.72100 30.75200 28.47800
C  -3.96900 31.93000 28.47700
C  -5.92100 29.29000 26.73000
C  -4.97000 30.27500 29.84100
O  -5.63000 29.44100 30.39400
C  -4.20300 31.28400 30.73600
C  -5.22200 31.86200 31.64700
O  -6.22400 32.38000 31.22200
O  -4.94100 31.66200 32.98900
C  -6.05600 31.94700 33.95300
H  -0.52600 37.10900 29.33200
H  -2.00600 36.32000 23.09300
H  -4.95700 30.83400 24.51900
H  -3.20300 34.37600 32.01000
H  -0.55500 35.23200 31.27500
H  -2.84600 36.49700 32.37900
H  -1.95200 37.53200 31.24100
H  -1.13500 36.66900 32.58800
H  -0.45800 33.28400 32.29200
H  -1.47400 32.09100 31.60300
H  -2.46500 31.78700 33.66800
H  -2.77300 33.48500 33.81300
H  1.18600 39.15100 26.82400
H  0.47900 38.88500 28.37500
H  -0.26700 39.99700 27.38900
H  0.46900 39.96700 24.77500
H  -1.19700 40.39100 25.34900
H  -0.59300 40.82400 23.67500
H  -2.71600 34.17900 21.74900
H  -4.90200 32.39200 22.45700
H  -4.66500 35.04300 20.81400
H  -4.79700 36.14200 22.15500
H  -5.62600 34.53900 22.22800
H  -2.53100 31.98600 21.15900
H  -3.07000 30.75600 22.34200
H  -0.61000 31.26900 22.53900
H  -1.63900 31.28300 23.95800
H  -1.17900 32.82600 23.21700
H  -5.41600 28.57400 26.08200
H  -6.72000 29.76700 26.16300
H  -6.40800 28.78800 27.56600
H  -3.52700 30.64600 31.30500
H  -5.48500 32.48600 34.70900
H  -6.48400 31.04500 34.39000
H  -6.92400 32.52400 33.63500


