%nproc=24
%mem=175gb
#p wB97XD/Def2SVP td=(nstates=5)

TDDFT excited states in gaussian

0 1
Mg -1.96800 16.99100 27.07800
C  -2.18500 14.77300 29.87900
C  -3.22300 19.43300 29.10400
C  -2.21300 18.84100 24.51400
C  -1.82200 14.16700 25.04100
N  -2.58500 16.98200 29.20400
C  -2.56200 16.08300 30.18300
C  -2.90400 16.68200 31.58000
C  -3.74100 17.95500 31.11000
C  -3.12300 18.15900 29.73800
C  -5.23100 17.67600 30.94100
C  -1.62300 17.10100 32.37700
C  -1.84400 17.38800 33.86500
H  -0.80000 17.02400 34.81100
N  -2.15300 18.95200 26.92600
C  -2.67100 19.79100 27.85500
C  -2.58800 21.14700 27.27100
C  -2.15500 21.00600 25.85300
C  -2.18200 19.57400 25.69800
C  -2.85500 22.39700 28.05200
C  -1.78700 22.00400 24.80100
O  -1.66500 21.68100 23.57000
C  -1.65800 23.40500 25.24100
N  -2.23300 16.57800 25.04900
C  -2.24700 17.56000 24.14100
C  -2.16400 17.01500 22.74600
C  -1.84400 15.45800 22.89800
C  -1.88200 15.35900 24.44300
C  -3.41900 17.19600 21.88100
C  -0.59500 14.92100 22.15500
C  0.65800 15.50100 22.77200
N  -1.81800 14.84700 27.38100
C  -1.79500 13.85500 26.39000
C  -1.79500 12.55300 27.08200
C  -1.83500 12.88000 28.43600
C  -1.88500 14.29600 28.58000
C  -1.81900 11.27600 26.45500
C  -1.87200 12.36200 29.79400
O  -1.76000 11.24400 30.29900
C  -2.22300 13.56300 30.77900
C  -1.25100 13.50900 31.92600
O  -0.03700 13.73600 31.74700
O  -1.93000 13.43500 33.08100
C  -1.02500 13.40800 34.26100
H  -3.82700 20.21100 29.57500
H  -2.18600 19.44400 23.60400
H  -1.69200 13.24400 24.47300
H  -3.52200 16.04200 32.21000
H  -3.55300 18.82200 31.74300
H  -5.45200 16.61400 31.04700
H  -5.47900 18.01800 29.93600
H  -5.82000 18.29200 31.62100
H  -1.29900 18.08700 32.04400
H  -0.83800 16.35200 32.26700
H  -2.81200 17.01700 34.20300
H  -1.90600 18.46800 33.99900
H  -3.31200 22.17700 29.01600
H  -3.61900 22.95400 27.51000
H  -1.96100 23.01100 28.16200
H  -2.60300 23.73500 25.67300
H  -1.30300 23.96100 24.37400
H  -0.92000 23.45700 26.04200
H  -1.36000 17.49200 22.18700
H  -2.66000 14.83500 22.53100
H  -3.23500 17.73100 20.94900
H  -4.17200 17.70500 22.48200
H  -3.93500 16.27100 21.62500
H  -0.61200 15.23200 21.11100
H  -0.51600 13.83400 22.17600
H  0.74600 16.46900 22.28000
H  1.51900 14.87000 22.54900
H  0.52700 15.68800 23.83800
H  -1.10100 10.65800 26.99400
H  -1.56400 11.34900 25.39800
H  -2.85900 10.99200 26.61500
H  -3.25100 13.41000 31.10600
H  -1.27000 12.51300 34.83300
H  -1.13500 14.37200 34.75800
H  0.03200 13.23700 34.05400
Mg 41.12800 41.85700 26.98600
C  40.12700 44.17900 29.64000
C  41.31000 39.41000 29.48700
C  42.36200 39.82100 24.75900
C  40.70600 44.36300 24.68300
N  40.96700 41.85000 29.29200
C  40.42100 42.87500 30.17300
C  40.33700 42.44400 31.65300
C  40.94600 40.93000 31.52100
C  41.11600 40.67200 30.01100
C  42.22400 40.71400 32.30800
C  38.87900 42.58800 32.18500
C  38.60800 41.92700 33.50300
H  37.80600 42.65600 34.55800
N  41.79000 39.86100 27.08100
C  41.78200 39.01000 28.19200
C  42.26600 37.68700 27.80200
C  42.58400 37.77600 26.38500
C  42.25600 39.19200 25.97700
C  42.31400 36.43000 28.74600
C  43.16500 36.78400 25.44300
O  43.35700 36.97800 24.25000
C  43.44600 35.41200 25.89800
N  41.39000 42.02100 25.04500
C  42.03300 41.09600 24.33000
C  42.18900 41.49200 22.84300
C  41.28100 42.70200 22.76900
C  41.15000 43.12300 24.28400
C  43.62900 41.80100 22.45000
C  39.92300 42.66800 22.11700
C  38.93300 41.74000 22.78800
N  40.64100 43.87900 27.09600
C  40.41100 44.75400 26.01900
C  40.01000 46.03800 26.53900
C  39.83600 45.76900 27.92100
C  40.24100 44.45600 28.22800
C  39.64600 47.28300 25.78400
C  39.34100 46.43200 29.16700
O  38.79000 47.54000 29.34100
C  39.55800 45.41800 30.28800
C  40.41800 46.03500 31.39300
O  41.61900 46.43600 31.36700
O  39.69400 45.95900 32.54600
C  40.38200 46.43100 33.76900
H  41.17000 38.61400 30.22000
H  42.83200 39.17800 24.01200
H  40.57600 45.21400 24.01100
H  40.93200 43.17900 32.19500
H  40.17200 40.21500 31.80000
H  42.06000 39.90200 33.01700
H  42.40500 41.63800 32.85600
H  43.16100 40.69100 31.75200
H  38.23700 42.28000 31.35900
H  38.65800 43.64900 32.30200
H  39.47300 41.65400 34.10700
H  37.99100 41.04400 33.33900
H  41.63300 35.71400 28.28500
H  41.97100 36.63500 29.76000
H  43.34800 36.08500 28.73700
H  43.92500 35.36100 26.87600
H  44.12500 35.02700 25.13800
H  42.45600 34.98600 26.05800
H  41.84700 40.64300 22.25100
H  41.73700 43.52300 22.21500
H  43.81400 41.38100 21.46200
H  44.33400 41.35700 23.15200
H  43.75500 42.87300 22.29400
H  40.06700 42.45700 21.05700
H  39.41200 43.62400 22.23000
H  38.39800 41.12300 22.06700
H  38.14200 42.27600 23.31300
H  39.38000 41.04100 23.49500
H  38.67000 47.63800 26.11400
H  39.60000 47.28100 24.69500
H  40.39300 48.03500 26.03900
H  38.59300 45.21900 30.75500
H  40.75500 45.57700 34.33400
H  39.56300 47.00000 34.20900
H  41.15300 47.17200 33.55400


