%nproc=24
%mem=175gb
#p wB97XD/Def2SVP td=(nstates=5)

TDDFT excited states in gaussian

0 1
Mg 46.48800 44.18100 43.47500
C  43.15300 43.46100 43.30400
C  47.10800 40.75600 42.73500
C  49.77100 44.92500 43.24200
C  45.73500 47.57600 43.26500
N  45.18800 42.33600 42.67700
C  43.85400 42.27500 42.94800
C  43.32200 40.91600 42.58600
C  44.62300 40.02800 42.36600
C  45.76600 41.06300 42.61200
C  44.58600 38.65100 42.92100
C  42.20900 40.77400 41.44300
C  42.22600 41.75800 40.31100
H  42.13200 41.19200 38.90100
N  48.19100 42.96300 43.28600
C  48.25100 41.62900 43.02600
C  49.60100 41.16100 42.91600
C  50.41700 42.37800 43.18500
C  49.45800 43.50200 43.25700
C  50.07700 39.81200 42.65600
C  51.92500 42.49800 43.35200
O  52.62900 41.58000 43.12100
C  52.68900 43.74400 43.70500
N  47.56100 45.95400 43.15400
C  48.89600 45.98900 43.28400
C  49.46200 47.47200 42.97200
C  48.15100 48.31100 43.36800
C  47.10700 47.23300 43.19900
C  50.71200 47.88700 43.75300
C  48.00000 49.60500 42.54800
C  47.68500 50.93800 43.23700
N  44.79500 45.31200 43.20500
C  44.59800 46.68700 43.17600
C  43.22600 47.01600 43.20700
C  42.57500 45.79800 43.31300
C  43.57500 44.76200 43.30900
C  42.60800 48.38000 43.21500
C  41.37100 45.09400 43.47000
O  40.23700 45.56500 43.52900
C  41.64700 43.57300 43.29900
C  40.96100 42.96000 44.51100
O  40.13800 42.02200 44.45100
O  41.52200 43.52500 45.63200
C  41.27100 42.99100 46.99300
H  47.22800 39.72900 42.38400
H  50.80000 45.16300 42.96500
H  45.50900 48.64400 43.27100
H  42.74600 40.53700 43.43100
H  44.70600 39.88500 41.28900
H  45.47200 38.39300 43.50100
H  44.34100 37.90700 42.16300
H  43.78400 38.58200 43.65600
H  41.18300 40.86000 41.80100
H  42.35800 39.83500 40.90900
H  42.98200 42.53800 40.39500
H  41.27000 42.28200 40.33700
H  49.35900 39.10300 43.06700
H  51.06100 39.59900 43.07200
H  50.12200 39.70100 41.57200
H  51.89900 44.16700 44.32600
H  52.89000 44.37800 42.84200
H  53.62800 43.61700 44.24400
H  49.58000 47.51900 41.88900
H  48.02200 48.62000 44.40500
H  50.38700 48.59700 44.51400
H  51.51000 48.17200 43.06800
H  51.16800 47.06300 44.30100
H  47.21200 49.41800 41.81800
H  48.88600 49.70600 41.92100
H  48.29300 51.80900 42.99200
H  47.59300 50.84600 44.32000
H  46.63600 51.07800 42.97800
H  41.68900 48.46100 43.79600
H  42.39500 48.66700 42.18500
H  43.24900 49.14100 43.66200
H  41.15500 43.34600 42.35400
H  42.16000 43.01500 47.62300
H  40.93100 41.96000 46.89400
H  40.51300 43.43800 47.63500
Mg 7.63600 56.80200 41.94500
C  6.62500 53.44600 41.38500
C  10.68100 55.97500 40.45800
C  8.03200 60.02500 41.40500
C  4.22800 57.38500 43.14900
N  8.45000 54.91300 40.78100
C  7.95700 53.66100 40.95000
C  8.99000 52.64800 40.49000
C  10.32900 53.33300 40.76400
C  9.81400 54.85400 40.60800
C  10.97600 53.14900 42.13800
C  8.68800 52.22300 38.98700
C  8.78600 50.76200 38.78500
H  9.47200 50.26400 37.49800
N  9.15000 57.91900 40.99500
C  10.37200 57.38400 40.51700
C  11.15700 58.50500 40.06500
C  10.49600 59.72000 40.38700
C  9.15900 59.29200 40.93300
C  12.51600 58.28800 39.40700
C  10.98000 61.08400 40.08900
O  12.05800 61.21700 39.52300
C  10.25300 62.36800 40.32000
N  6.19300 58.49600 42.17300
C  6.76600 59.71000 42.05200
C  5.81300 60.81300 42.54700
C  4.61500 59.97500 43.27000
C  5.02400 58.52600 42.89900
C  6.51300 61.95400 43.41400
C  3.16600 60.37300 42.84800
C  2.45300 59.49100 41.76700
N  5.85400 55.73100 42.22300
C  4.59600 56.10000 42.77900
C  3.77800 54.83100 43.01200
C  4.55200 53.84100 42.42800
C  5.79000 54.43400 41.99000
C  2.39800 54.58300 43.65100
C  4.62700 52.43800 42.17000
O  3.86200 51.52600 42.48800
C  5.87100 52.24300 41.37900
C  5.33600 51.93400 39.96200
O  4.91100 52.73800 39.13500
O  5.35200 50.52000 39.80700
C  4.79600 49.97200 38.63700
H  11.68700 55.76400 40.08900
H  8.33200 61.07300 41.34400
H  3.25200 57.43300 43.63500
H  9.01800 51.75000 41.10700
H  11.18700 53.14700 40.11900
H  10.60100 52.28700 42.68900
H  11.03000 54.09000 42.68600
H  12.00300 52.89400 41.87400
H  9.43500 52.68300 38.34000
H  7.77500 52.65300 38.57500
H  7.73900 50.46500 38.83400
H  9.33600 50.33800 39.62500
H  13.35000 58.53400 40.06400
H  12.53800 58.83400 38.46500
H  12.64500 57.23800 39.14400
H  10.18000 62.52800 41.39600
H  9.25600 62.43600 39.88300
H  10.86800 63.22900 40.06100
H  5.41300 61.22100 41.61900
H  4.75100 60.04000 44.34900
H  7.57600 62.02500 43.18400
H  6.34900 61.97700 44.49200
H  5.91600 62.83300 43.16600
H  3.09900 61.41000 42.52000
H  2.61700 60.24800 43.78100
H  1.86900 60.30400 41.33500
H  1.78000 58.70400 42.10800
H  3.21700 59.14200 41.07200
H  2.47400 53.89100 44.48900
H  1.98400 53.99700 42.83100
H  1.91500 55.55200 43.77500
H  6.40600 51.37000 41.75300
H  4.82800 48.88300 38.58500
H  5.36500 50.36200 37.79400
H  3.76000 50.31200 38.63400


