%nproc=24
%mem=175gb
#p wB97XD/Def2SVP td=(nstates=5)

TDDFT excited states in gaussian

0 1
Mg 25.94600 0.51000 29.41700
C  27.75500 0.04800 32.42200
C  23.08400 0.98300 31.28700
C  24.18800 0.65700 26.52400
C  28.83500 -0.18800 27.55800
N  25.56000 0.39300 31.59400
C  26.46800 0.41400 32.65000
C  25.73500 0.61600 34.03900
C  24.24300 0.62700 33.61200
C  24.25900 0.61600 32.06700
C  23.30400 -0.50900 34.16600
C  26.25400 1.80200 34.95100
C  26.76400 1.39400 36.30000
H  26.45300 2.38700 37.48900
N  23.95800 0.76900 29.03000
C  22.92100 1.01800 29.90600
C  21.67800 1.14300 29.16100
C  21.94400 1.05800 27.76500
C  23.43600 0.83800 27.70800
C  20.32000 1.49500 29.80100
C  21.00100 1.19500 26.57400
O  21.36800 1.18900 25.41700
C  19.44600 1.46900 26.69600
N  26.43900 0.16900 27.31600
C  25.54800 0.29300 26.34100
C  26.18900 0.06900 24.92500
C  27.73100 -0.01000 25.26000
C  27.69500 0.01500 26.81800
C  25.54500 -1.13400 24.17700
C  28.51900 1.10000 24.59300
C  29.85400 0.64900 24.00300
N  27.89800 -0.11200 29.79400
C  28.99000 -0.26300 28.96100
C  30.08800 -0.69100 29.77200
C  29.69800 -0.55100 31.12700
C  28.32100 -0.19300 31.11800
C  31.42300 -1.10700 29.28200
C  30.17600 -0.59300 32.52000
O  31.23000 -0.96300 33.02900
C  28.81000 -0.12800 33.44600
C  28.50200 -1.15100 34.39600
O  27.57900 -1.93000 34.29600
O  29.31100 -1.04800 35.50500
C  29.06500 -2.12600 36.49500
H  22.18200 1.26000 31.83700
H  23.66500 0.64600 25.56600
H  29.70300 -0.30600 26.90500
H  25.82900 -0.35200 34.53000
H  23.76600 1.56200 33.90600
H  22.35300 -0.03400 34.40900
H  23.77900 -0.95200 35.04100
H  23.10600 -1.31400 33.45800
H  25.42400 2.50500 35.02300
H  27.09400 2.25600 34.42500
H  27.85000 1.29700 36.26800
H  26.30600 0.41800 36.45800
H  20.08400 2.49100 29.42800
H  20.46000 1.63600 30.87300
H  19.49000 0.83300 29.55100
H  19.31200 2.38400 27.27400
H  18.87900 0.57700 26.96400
H  19.10200 1.53100 25.66400
H  26.08400 0.92600 24.26000
H  28.04800 -1.00900 24.96000
H  26.34500 -1.78700 23.82700
H  24.86300 -0.83400 23.38100
H  24.93000 -1.70700 24.86900
H  28.70300 1.93600 25.26700
H  27.98200 1.61200 23.79300
H  30.10400 -0.36600 24.31200
H  30.60900 1.32100 24.41200
H  29.90400 0.79600 22.92400
H  31.58400 -1.10700 28.20400
H  31.68500 -2.00300 29.84600
H  32.04200 -0.24000 29.51400
H  29.03700 0.80200 33.96800
H  29.24700 -3.09800 36.03600
H  28.05200 -1.96800 36.86500
H  29.74500 -2.08500 37.34500
Mg 15.77600 52.08200 25.40200
C  17.41000 50.69800 28.22000
C  13.20100 52.90800 27.42100
C  14.25400 53.22200 22.73700
C  18.25300 50.46100 23.37600
N  15.27500 51.74600 27.60200
C  16.22500 51.39100 28.54500
C  15.65700 51.73300 29.88000
C  14.15600 51.89200 29.63600
C  14.16000 52.23400 28.12500
C  13.39700 50.53700 29.89600
C  16.28100 53.03000 30.62900
C  16.58500 52.99000 32.15800
H  15.44800 52.47100 33.08500
N  13.93500 52.94500 25.15100
C  13.06900 53.20000 26.08700
C  11.87700 53.79900 25.46200
C  12.22000 54.11300 24.11200
C  13.51400 53.39600 23.93000
C  10.48000 54.11300 26.11100
C  11.50000 54.93700 23.04500
O  11.87100 55.02600 21.85900
C  10.19300 55.49000 23.36500
N  16.14700 51.69600 23.28800
C  15.39400 52.41700 22.36500
C  16.06600 52.28500 20.94400
C  17.38400 51.52800 21.24300
C  17.29200 51.23400 22.74200
C  15.13200 51.68100 19.89500
C  18.69000 52.21600 20.77200
C  19.80100 51.32100 20.17500
N  17.47400 50.82500 25.67600
C  18.34200 50.20900 24.78000
C  19.41200 49.59700 25.52600
C  19.05500 49.71600 26.87000
C  17.86300 50.48800 26.94600
C  20.58200 49.01900 25.00900
C  19.46500 49.44600 28.25600
O  20.44600 48.90400 28.74000
C  18.40300 50.10900 29.19300
C  17.85700 49.01900 30.09800
O  16.99100 48.18400 29.96600
O  18.53900 49.25300 31.25700
C  18.03900 48.60700 32.49400
H  12.40000 53.26000 28.07500
H  13.81800 53.79200 21.91400
H  19.12700 50.15700 22.79700
H  15.77300 50.97700 30.65700
H  13.74100 52.77300 30.12500
H  12.38500 50.66400 30.27900
H  13.84800 49.93600 30.68600
H  13.32800 50.06400 28.91700
H  15.69100 53.91000 30.37500
H  17.23100 53.29600 30.16400
H  16.68900 54.04900 32.39700
H  17.49400 52.38900 32.18400
H  10.24800 55.17100 26.23100
H  10.47100 53.63100 27.08900
H  9.61500 53.80800 25.52200
H  10.23700 56.09500 24.27100
H  9.45700 54.69600 23.49200
H  9.96700 56.22700 22.59500
H  16.38500 53.29100 20.67100
H  17.33800 50.51100 20.85400
H  15.24100 50.59600 19.90400
H  15.36700 51.95500 18.86700
H  14.10200 51.79300 20.23200
H  19.14000 52.87200 21.51700
H  18.48100 52.96500 20.00700
H  20.48500 51.15800 21.00800
H  20.30400 51.95600 19.44500
H  19.37300 50.39500 19.79200
H  21.13200 48.28300 25.59500
H  21.23200 49.84300 24.71300
H  20.26200 48.46700 24.12600
H  18.86400 50.90900 29.77200
H  18.09100 49.38900 33.25100
H  18.61600 47.75900 32.86200
H  16.99700 48.31500 32.36600


