%nproc=24
%mem=175gb
#p wB97XD/Def2SVP td=(nstates=5)

TDDFT excited states in gaussian

0 1
Mg 8.88300 3.35600 27.86700
C  10.38300 1.75300 30.56400
C  7.38700 5.53100 30.05200
C  7.19500 4.67800 25.21800
C  10.33700 0.83700 25.82400
N  8.85600 3.59100 30.04700
C  9.65000 2.88400 30.91100
C  9.43500 3.49700 32.29700
C  8.27700 4.46700 32.14400
C  8.19100 4.56300 30.62500
C  6.95700 4.16900 32.80300
C  10.74000 4.12300 32.98500
C  10.49500 4.94200 34.29300
H  10.56500 4.20300 35.65500
N  7.60700 4.98100 27.67200
C  7.08500 5.72600 28.67800
C  6.18300 6.66800 28.06800
C  6.13000 6.40800 26.66700
C  6.96700 5.31400 26.45500
C  5.47200 7.68700 28.90400
C  5.19000 7.09800 25.63600
O  4.95300 6.60000 24.55000
C  4.43400 8.30700 25.92000
N  8.80500 2.84800 25.93900
C  8.07600 3.55600 24.98400
C  8.26300 2.99400 23.56400
C  9.45300 1.99700 23.77400
C  9.56600 1.92700 25.28800
C  7.04500 2.56000 22.85900
C  10.87100 2.27700 23.02500
C  11.45600 1.24800 22.05300
N  10.10500 1.54900 28.11900
C  10.57400 0.66100 27.19200
C  11.35500 -0.36000 27.80500
C  11.38100 0.07200 29.18600
C  10.52100 1.19800 29.31900
C  12.01900 -1.46000 27.06800
C  11.98300 -0.20000 30.47100
O  12.81500 -0.99400 30.86400
C  11.31100 0.93300 31.44800
C  10.73600 0.32300 32.67400
O  9.77600 -0.41600 32.67100
O  11.39000 0.69300 33.78900
C  10.74800 0.34700 35.11500
H  6.95000 6.26000 30.73800
H  6.63700 5.11600 24.38800
H  10.70900 0.18100 25.03400
H  9.14100 2.60500 32.85000
H  8.55100 5.42600 32.58300
H  6.38200 3.89500 31.91900
H  6.56900 5.01600 33.36900
H  6.99000 3.26400 33.41000
H  11.10800 4.77800 32.19500
H  11.45800 3.33300 33.20200
H  9.50400 5.39400 34.30500
H  11.21400 5.76100 34.31200
H  5.72000 7.75000 29.96400
H  4.42300 7.39300 28.89100
H  5.49900 8.68800 28.47300
H  3.85400 8.38500 26.83900
H  3.77700 8.64800 25.12000
H  5.21700 9.06500 25.91700
H  8.64800 3.90400 23.10300
H  8.95400 1.07600 23.47300
H  6.77200 3.11000 21.95800
H  6.21600 2.63700 23.56300
H  7.08300 1.53300 22.49600
H  11.62300 2.42400 23.80000
H  10.95600 3.19100 22.43600
H  12.28200 0.65800 22.45100
H  11.66900 1.63000 21.05500
H  10.70100 0.47500 21.90900
H  11.30800 -1.87500 26.35400
H  12.43500 -2.21900 27.73000
H  12.73100 -1.00300 26.38000
H  12.14100 1.55900 31.77400
H  11.59600 0.40500 35.79700
H  10.32500 -0.65500 35.04600
H  10.03300 1.14100 35.33100
Mg 53.43000 23.68000 44.03900
C  50.60500 25.72200 43.59200
C  51.43200 20.92900 43.52700
C  56.21400 21.92200 43.71600
C  55.42100 26.61100 44.29000
N  51.34600 23.39300 43.36500
C  50.33600 24.38200 43.24300
C  48.97800 23.81200 43.21200
C  49.26700 22.25100 43.29300
C  50.77800 22.16700 43.44100
C  48.41400 21.54400 44.37400
C  48.22300 24.06100 41.94200
C  49.03400 24.02900 40.63800
H  48.41800 23.46200 39.30000
N  53.81600 21.66600 43.70400
C  52.86000 20.71900 43.65000
C  53.50000 19.42800 43.60900
C  54.89000 19.67000 43.73700
C  55.04900 21.13300 43.75700
C  52.80700 18.10400 43.43000
C  55.97700 18.59900 43.82300
O  55.69800 17.41700 43.77300
C  57.46200 18.80800 43.85800
N  55.50100 24.20200 43.75000
C  56.49500 23.26200 43.68900
C  57.90500 23.90500 43.90100
C  57.59200 25.42600 43.76600
C  56.09200 25.42600 43.96400
C  58.57700 23.60200 45.26200
C  57.80600 26.06200 42.31200
C  58.53500 27.35500 42.24600
N  53.14400 25.68200 44.06800
C  53.99400 26.67600 44.35900
C  53.22600 27.91400 44.76200
C  51.87400 27.51900 44.50800
C  51.89200 26.20900 43.95100
C  53.71800 29.26500 45.26100
C  50.53800 28.03700 44.44100
O  50.10500 29.15300 44.68100
C  49.65300 26.85900 43.86500
C  49.16300 27.30200 42.50200
O  49.80500 27.46200 41.51700
O  47.78800 27.38800 42.55400
C  47.15600 27.52600 41.23800
H  50.76800 20.06300 43.56200
H  57.13800 21.34600 43.78900
H  56.08600 27.44900 44.50900
H  48.42400 24.23500 44.05000
H  49.15700 21.69500 42.36200
H  48.03700 20.69600 43.80200
H  47.64400 22.25100 44.68300
H  49.00900 21.15600 45.20100
H  47.55300 24.92000 41.98700
H  47.44900 23.32600 41.72000
H  49.94100 23.47800 40.88900
H  49.32900 25.07300 40.53100
H  53.31800 17.49200 42.68600
H  51.75400 18.26600 43.20000
H  52.89400 17.62800 44.40700
H  57.89700 19.23300 42.95400
H  57.81600 17.77700 43.85100
H  57.81900 19.19500 44.81300
H  58.56100 23.52900 43.11600
H  58.08000 26.03800 44.52500
H  58.61900 24.52500 45.84000
H  59.48300 23.00800 45.14300
H  57.92700 22.93400 45.82600
H  56.85800 26.15700 41.78300
H  58.38300 25.30400 41.78200
H  59.40900 27.31900 41.59600
H  58.83900 27.73400 43.22200
H  57.92000 28.14400 41.81400
H  53.34500 30.00700 44.55500
H  54.79200 29.18400 45.43300
H  53.17000 29.44900 46.18500
H  48.82700 26.60000 44.52700
H  47.72400 27.04800 40.44000
H  47.12200 28.60500 41.08700
H  46.11800 27.22500 41.37700


