%nproc=24
%mem=175gb
#p wB97XD/Def2SVP td=(nstates=5)

TDDFT excited states in gaussian

0 1
Mg 25.47400 50.80800 26.36000
C  23.42800 51.77500 29.14000
C  27.78000 49.80000 28.46900
C  27.48600 50.74800 23.72700
C  22.89100 52.35600 24.24800
N  25.55500 50.75400 28.55700
C  24.64000 51.22200 29.52100
C  25.12200 51.01800 31.00700
C  26.56400 50.28500 30.68300
C  26.67300 50.24400 29.16200
C  27.79400 51.06900 31.31300
C  24.14500 50.22000 31.93900
C  24.75600 49.66700 33.22100
H  24.21600 50.30100 34.51600
N  27.35300 50.24000 26.12300
C  28.22400 49.80700 27.09500
C  29.50900 49.42000 26.55200
C  29.38500 49.70200 25.13400
C  27.97500 50.19600 24.94200
C  30.61900 48.81900 27.27800
C  30.38700 49.50900 24.00900
O  30.13300 49.66800 22.84800
C  31.78500 49.18000 24.46100
N  25.24600 51.52100 24.28400
C  26.25500 51.32600 23.39800
C  25.83300 51.76400 21.97000
C  24.32300 52.13900 22.16700
C  24.10500 51.95100 23.65600
C  26.64800 52.90800 21.27600
C  23.28700 51.29000 21.34900
C  23.20200 51.69600 19.86100
N  23.59000 51.86200 26.56100
C  22.66400 52.33500 25.66000
C  21.52300 52.77100 26.36200
C  21.75600 52.64400 27.68000
C  23.06700 52.09200 27.80400
C  20.26700 53.21900 25.62600
C  21.30400 52.86100 29.05800
O  20.28500 53.34300 29.48100
C  22.42600 52.30600 30.05900
C  23.02400 53.48800 30.75300
O  23.93000 54.23000 30.44700
O  22.33300 53.57900 31.94500
C  22.72800 54.66700 32.87100
H  28.62400 49.48900 29.08800
H  28.23800 50.84300 22.94000
H  22.18300 52.67600 23.48000
H  25.36700 52.00000 31.41200
H  26.54900 49.29900 31.14800
H  28.47500 50.35700 31.77900
H  27.60200 51.88000 32.01500
H  28.41300 51.49500 30.52400
H  23.78800 49.47000 31.23200
H  23.21100 50.69500 32.24000
H  25.83400 49.82400 33.19700
H  24.45000 48.62700 33.33100
H  30.63000 47.83900 26.80100
H  30.42700 48.80700 28.35100
H  31.61000 49.25400 27.15000
H  31.91600 48.09800 24.46700
H  32.15000 49.82600 25.26000
H  32.40300 49.70200 23.73100
H  25.75100 50.83500 21.40500
H  24.20500 53.21400 22.02900
H  26.08400 53.79400 20.98300
H  26.95200 52.49600 20.31400
H  27.50400 53.28000 21.83900
H  22.29300 51.43100 21.77200
H  23.59200 50.25400 21.50300
H  23.57200 52.71200 19.72200
H  22.15600 51.57400 19.58000
H  23.82700 51.09700 19.19800
H  19.37700 53.06800 26.23700
H  20.20500 52.68100 24.68000
H  20.36300 54.25800 25.31000
H  22.01700 51.57800 30.76000
H  21.79500 55.04700 33.28700
H  23.27800 55.48100 32.39900
H  23.31400 54.08500 33.58300
Mg -10.08900 40.79200 42.94700
C  -8.61600 37.87300 41.73900
C  -7.78200 42.64100 41.17400
C  -11.69100 43.40600 44.11700
C  -13.01100 38.80800 43.84600
N  -8.29800 40.23100 41.61500
C  -7.89900 38.98100 41.23300
C  -6.67800 39.04800 40.38600
C  -6.44000 40.59600 40.17200
C  -7.57700 41.25700 41.04500
C  -4.98600 41.06900 40.42300
C  -6.83200 38.29900 39.04000
C  -5.67600 37.32300 38.82800
H  -4.88500 37.42500 37.48900
N  -9.75400 42.76600 42.70300
C  -8.72900 43.36600 41.97300
C  -8.87200 44.79700 42.20800
C  -10.00600 45.05500 43.11000
C  -10.52500 43.68700 43.42700
C  -8.10300 45.78800 41.48800
C  -10.49500 46.41500 43.39200
O  -9.97600 47.42800 42.97200
C  -11.74500 46.70800 44.14600
N  -12.01700 41.03600 43.77600
C  -12.30900 42.20100 44.43900
C  -13.68100 42.11000 45.07300
C  -14.24200 40.84200 44.54700
C  -13.08300 40.19800 43.96600
C  -13.70800 42.29100 46.64600
C  -15.26700 41.05700 43.38100
C  -16.32200 40.05900 43.24400
N  -10.72900 38.74300 42.86600
C  -11.88000 38.08300 43.31600
C  -11.64700 36.67300 43.29400
C  -10.42100 36.52600 42.65600
C  -9.90000 37.83800 42.36900
C  -12.60800 35.66600 43.80900
C  -9.50700 35.58200 42.14800
O  -9.55000 34.37200 42.15700
C  -8.30600 36.38400 41.59900
C  -7.07900 35.93500 42.27600
O  -6.65100 36.36600 43.36000
O  -6.55600 34.85100 41.60900
C  -5.28400 34.28000 42.02100
H  -6.98400 43.15900 40.63900
H  -12.35200 44.18100 44.51300
H  -13.89800 38.25100 44.15500
H  -5.86700 38.79100 41.06800
H  -6.60400 40.92400 39.14600
H  -4.42500 40.13600 40.35700
H  -4.81000 41.64900 41.32900
H  -4.66100 41.71400 39.60700
H  -6.76000 38.94200 38.16300
H  -7.79900 37.79800 39.08100
H  -6.24400 36.39600 38.75100
H  -5.06200 37.35000 39.72700
H  -7.39900 45.26300 40.84200
H  -7.46100 46.42800 42.09400
H  -8.77100 46.37100 40.85300
H  -11.59200 46.04300 44.99600
H  -12.59700 46.39100 43.54400
H  -11.78600 47.75300 44.45400
H  -14.19200 42.98500 44.67300
H  -14.60800 40.10900 45.26600
H  -12.74000 42.63900 47.00700
H  -14.11000 41.44200 47.20000
H  -14.30700 43.14200 46.96900
H  -14.72400 41.14600 42.44000
H  -15.78500 42.00900 43.49600
H  -17.15500 40.34300 43.88800
H  -15.96800 39.05000 43.45800
H  -16.80100 40.16400 42.27000
H  -13.09400 36.01500 44.72000
H  -12.17300 34.67900 43.96700
H  -13.39900 35.66300 43.05900
H  -8.06700 36.13500 40.56500
H  -5.23500 33.70700 42.94700
H  -4.52300 35.06000 42.03400
H  -5.07200 33.53500 41.25500


