%nproc=24
%mem=175gb
#p wB97XD/Def2SVP td=(nstates=5)

TDDFT excited states in gaussian

0 1
Mg -2.17200 16.97900 26.95200
C  -2.72400 15.15000 29.85500
C  -3.03700 19.79700 28.58300
C  -2.39300 18.59300 23.98800
C  -2.09700 13.93400 25.14200
N  -2.70100 17.33200 28.98300
C  -2.73500 16.51500 30.09200
C  -3.14200 17.32600 31.35300
C  -3.73400 18.61600 30.70600
C  -3.02700 18.64900 29.35900
C  -5.29100 18.59800 30.51100
C  -1.92300 17.38000 32.29200
C  -2.24700 17.17600 33.72300
H  -1.11900 16.77000 34.55900
N  -2.42900 18.95600 26.42700
C  -2.71700 19.97700 27.27500
C  -2.49100 21.22100 26.58300
C  -2.29300 20.85800 25.20200
C  -2.45300 19.40200 25.14600
C  -2.60700 22.55600 27.22700
C  -2.12700 21.73600 23.91900
O  -1.95600 21.25500 22.79700
C  -2.02300 23.23300 24.00700
N  -2.58000 16.29000 24.86100
C  -2.48200 17.22200 23.79200
C  -2.41100 16.57800 22.44700
C  -2.09800 15.11800 22.91000
C  -2.20000 15.11800 24.43300
C  -3.71000 16.74000 21.58700
C  -0.67500 14.61400 22.47000
C  0.50900 15.54800 22.82800
N  -2.25800 14.94800 27.37500
C  -2.16300 13.82100 26.54400
C  -2.25500 12.68900 27.38800
C  -2.44400 13.17700 28.67500
C  -2.44900 14.53100 28.60300
C  -2.11400 11.26600 26.95000
C  -2.70100 12.78200 29.98000
O  -2.81800 11.63600 30.45100
C  -2.89700 14.02900 30.89400
C  -1.76000 13.88300 31.95300
O  -0.54300 14.00600 31.72700
O  -2.34900 13.58900 33.17800
C  -1.46500 13.15200 34.30500
H  -3.42500 20.61700 29.19100
H  -2.30900 18.94200 22.95600
H  -1.87100 12.97600 24.66900
H  -3.88000 16.77500 31.93500
H  -3.40400 19.48400 31.27600
H  -5.81600 17.73100 30.91300
H  -5.54300 18.53800 29.45300
H  -5.71700 19.45700 31.02900
H  -1.55900 18.40500 32.23700
H  -1.19600 16.65200 31.93100
H  -2.95800 16.35000 33.74700
H  -2.76300 18.06300 34.09000
H  -2.53500 22.48300 28.31200
H  -3.46700 23.06800 26.79400
H  -1.74500 23.16300 26.95000
H  -2.35600 23.58400 23.03000
H  -0.98600 23.54300 24.13800
H  -2.68700 23.64600 24.76700
H  -1.57800 16.92500 21.83400
H  -2.85900 14.45200 22.50200
H  -4.54500 16.97100 22.24900
H  -4.01900 15.87700 20.99700
H  -3.69300 17.53600 20.84200
H  -0.75400 14.40000 21.40400
H  -0.59800 13.63700 22.94700
H  1.24700 15.06400 23.46800
H  0.07900 16.42200 23.31800
H  1.05200 15.89400 21.94900
H  -3.02600 10.76600 27.27600
H  -1.20700 10.86800 27.40500
H  -2.07500 11.10900 25.87200
H  -3.86000 13.93400 31.39500
H  -0.97000 12.24300 33.96400
H  -1.93600 12.93200 35.26300
H  -0.82600 14.03500 34.31800
Mg 46.93600 15.62500 28.05800
C  44.93200 15.29600 30.93700
C  49.09000 17.55900 29.83300
C  48.76000 16.00400 25.23500
C  44.45800 14.02100 26.22900
N  46.95800 16.41700 30.08200
C  46.09700 16.05900 31.12300
C  46.62800 16.60100 32.41600
C  47.62900 17.68000 31.93900
C  47.92100 17.18200 30.50000
C  47.12800 19.15800 31.89100
C  47.27700 15.54600 33.38900
C  46.82300 15.65300 34.81000
H  47.91800 15.57200 35.89000
N  48.69300 16.53500 27.65600
C  49.51600 17.23100 28.55700
C  50.69200 17.65500 27.90800
C  50.64200 17.20000 26.50700
C  49.36600 16.54900 26.42000
C  51.74600 18.54700 28.49600
C  51.62200 17.40800 25.27200
O  51.37900 16.91300 24.19700
C  52.94200 18.14800 25.43500
N  46.59000 15.18000 25.99700
C  47.50700 15.46300 25.03600
C  46.95600 15.01700 23.59800
C  45.70400 14.10600 23.96500
C  45.55200 14.44900 25.50800
C  46.57100 16.16300 22.62200
C  45.92300 12.57300 23.70500
C  44.84800 12.01100 22.87300
N  45.05500 14.86000 28.45700
C  44.20200 14.13300 27.62800
C  43.05900 13.68500 28.37600
C  43.29100 14.14000 29.65800
C  44.47900 14.80000 29.68300
C  41.94600 12.80400 27.75100
C  42.74500 14.20900 31.00100
O  41.65000 13.85600 31.38000
C  43.81000 15.00600 31.90600
C  43.16000 16.20600 32.46400
O  42.63000 17.11600 31.77400
O  43.20400 16.12500 33.82500
C  42.27100 17.04800 34.52400
H  49.71300 18.20600 30.45400
H  49.27600 16.09400 24.27700
H  43.65900 13.58300 25.62800
H  45.89800 17.17200 32.99100
H  48.53800 17.72600 32.53900
H  46.41200 19.40800 32.67500
H  46.69600 19.31300 30.90200
H  47.90500 19.92200 31.89600
H  48.35200 15.68900 33.28100
H  47.12000 14.52600 33.03700
H  46.11600 14.82500 34.86400
H  46.37400 16.63200 34.97700
H  52.68800 18.06100 28.75100
H  51.39900 18.92200 29.45800
H  52.04800 19.43100 27.93500
H  53.46800 18.01800 24.49000
H  53.47200 17.83200 26.33400
H  52.75100 19.17700 25.74100
H  47.74100 14.50200 23.04400
H  44.84000 14.47300 23.40900
H  46.63200 17.17800 23.01600
H  45.55400 16.07500 22.23900
H  47.24700 16.08600 21.77000
H  45.87800 12.05000 24.66100
H  46.85000 12.32800 23.18700
H  45.20700 11.93900 21.84600
H  43.86300 12.47600 22.89300
H  44.58300 11.02200 23.24700
H  42.31900 12.37000 26.82300
H  41.00000 13.34300 27.68200
H  41.83700 11.97900 28.45400
H  44.19600 14.38400 32.71400
H  42.26000 16.83600 35.59300
H  41.27900 16.75800 34.17700
H  42.55700 18.06000 34.23600


