%nproc=24
%mem=175gb
#p wB97XD/Def2SVP td=(nstates=5)

TDDFT excited states in gaussian

0 1
Mg 46.63400 24.73200 28.52400
C  47.16600 26.79400 31.26900
C  45.35000 22.41900 30.76700
C  46.57500 22.51000 25.95000
C  48.10800 27.10900 26.49100
N  46.35100 24.60700 30.77200
C  46.60600 25.59200 31.71400
C  46.32600 25.14000 33.20100
C  46.05100 23.60400 32.96700
C  45.94200 23.50100 31.40100
C  47.03100 22.54000 33.47000
C  45.17300 25.95500 33.81500
C  45.53600 26.98000 34.85700
H  44.55500 27.15400 36.03000
N  45.88000 22.81500 28.28900
C  45.34100 22.11500 29.32300
C  44.95500 20.80900 28.75400
C  45.37600 20.75700 27.41600
C  45.95000 22.01600 27.13800
C  44.14400 19.85300 29.53100
C  45.30700 19.63400 26.42300
O  45.62600 19.75900 25.20800
C  44.90700 18.30200 26.75200
N  47.16200 24.82000 26.54200
C  47.02200 23.79200 25.66100
C  47.50000 24.11000 24.29900
C  47.94400 25.61100 24.43200
C  47.78600 25.82800 25.89000
C  48.58100 23.27100 23.55600
C  47.18600 26.64400 23.46000
C  45.80900 27.28400 23.80700
N  47.51200 26.55300 28.75500
C  48.03300 27.42300 27.84100
C  48.30100 28.65400 28.44600
C  48.04200 28.39000 29.84600
C  47.54000 27.10900 29.96100
C  48.74800 29.95300 27.77800
C  47.98400 29.05500 31.11600
O  48.14900 30.19900 31.48800
C  47.61900 27.93100 32.14800
C  48.80500 27.58900 32.95800
O  49.43200 26.50700 32.93800
O  49.23500 28.58100 33.76800
C  50.27600 28.29000 34.81200
H  45.00700 21.67200 31.48500
H  46.61700 21.83300 25.09400
H  48.42100 27.96800 25.89300
H  47.24300 25.06200 33.78600
H  45.06600 23.41800 33.39500
H  47.53600 22.06600 32.62800
H  46.41900 21.72900 33.86200
H  47.76900 22.88500 34.19500
H  44.55000 25.22000 34.32600
H  44.58000 26.37000 33.00000
H  45.61600 27.94300 34.35200
H  46.51600 26.85600 35.31800
H  43.21600 19.75600 28.96900
H  43.90200 20.07100 30.57200
H  44.63900 18.88200 29.54400
H  45.42400 18.07100 27.68300
H  45.01300 17.64200 25.89200
H  43.86100 18.27000 27.05700
H  46.55600 24.02200 23.76200
H  49.01300 25.68800 24.23700
H  48.17600 22.76600 22.67900
H  48.97300 22.47900 24.19500
H  49.46000 23.85000 23.27300
H  47.00900 26.03100 22.57600
H  47.98400 27.36400 23.27800
H  45.45700 27.11300 24.82400
H  45.01200 27.13000 23.07900
H  45.99000 28.35100 23.68400
H  49.68100 30.32800 28.20000
H  47.99600 30.71000 28.00000
H  48.80300 29.90800 26.69000
H  46.94500 28.37300 32.88200
H  50.12900 29.19800 35.39700
H  51.29200 28.18100 34.43400
H  50.01200 27.37900 35.35000
Mg -9.66500 18.33400 42.78400
C  -6.24000 17.80500 42.49600
C  -9.09900 21.67600 42.05300
C  -12.91200 18.87400 42.48300
C  -10.14800 14.91400 43.00500
N  -7.91600 19.56100 42.17100
C  -6.59800 19.16200 42.25800
C  -5.63300 20.29600 42.07600
C  -6.57300 21.55800 42.31900
C  -7.95100 20.93600 42.13600
C  -6.37100 22.54100 43.56800
C  -4.81400 20.28500 40.70300
C  -5.51800 19.69700 39.44400
H  -5.27900 20.48100 38.17600
N  -10.85700 20.01500 42.21400
C  -10.42000 21.32200 41.96500
C  -11.51000 22.18000 41.58900
C  -12.66600 21.36900 41.68400
C  -12.20600 20.01400 42.11100
C  -11.29500 23.68900 41.46200
C  -14.07900 21.93000 41.40500
O  -14.25800 23.08100 40.99400
C  -15.20100 21.03000 41.71200
N  -11.24800 17.01300 42.63400
C  -12.52300 17.52900 42.79400
C  -13.59000 16.43700 43.02800
C  -12.64200 15.17100 42.94600
C  -11.28500 15.70200 42.80600
C  -14.41600 16.47100 44.27500
C  -12.97300 14.21900 41.68800
C  -13.02000 12.77100 42.10100
N  -8.45700 16.64500 42.95800
C  -8.80300 15.30900 43.04100
C  -7.58100 14.47400 43.08900
C  -6.53000 15.43300 42.87800
C  -7.12900 16.69600 42.80500
C  -7.42000 13.00900 43.03700
C  -5.08700 15.65900 42.64900
O  -4.19400 14.85200 42.53200
C  -4.84400 17.18800 42.43700
C  -3.86600 17.68600 43.40500
O  -2.75700 18.18900 43.22300
O  -4.28400 17.22800 44.68200
C  -3.45300 17.67600 45.82000
H  -8.86100 22.74200 42.07500
H  -13.99400 18.96100 42.60100
H  -10.40600 13.86400 43.15400
H  -4.85200 20.25200 42.83500
H  -6.35600 22.13700 41.42100
H  -5.49500 22.34800 44.18700
H  -7.18200 22.50000 44.29500
H  -6.14100 23.54200 43.20200
H  -3.84000 19.81700 40.84200
H  -4.55300 21.32400 40.50200
H  -6.59000 19.59400 39.61500
H  -5.14100 18.69400 39.24600
H  -11.94900 24.16700 40.73200
H  -10.29700 23.87500 41.06600
H  -11.49900 24.10000 42.45100
H  -15.27200 20.92300 42.79400
H  -15.05600 20.07500 41.20600
H  -16.08400 21.54300 41.33100
H  -14.18800 16.36800 42.11900
H  -12.69300 14.77700 43.96100
H  -14.92900 15.51000 44.31600
H  -15.20300 17.20800 44.11500
H  -13.79200 16.69500 45.14100
H  -12.21000 14.42700 40.93800
H  -13.86700 14.45400 41.10900
H  -12.15800 12.27100 41.66000
H  -13.81800 12.22200 41.60000
H  -12.89800 12.69100 43.18100
H  -8.34400 12.43000 43.00100
H  -6.93100 12.73100 43.97000
H  -6.96900 12.89900 42.05100
H  -4.46800 17.26400 41.41700
H  -4.21000 17.98200 46.54300
H  -2.74000 18.49300 45.70900
H  -3.06600 16.75200 46.25000


