%nproc=24
%mem=175gb
#p wB97XD/Def2SVP td=(nstates=5)

TDDFT excited states in gaussian

0 1
Mg -1.96800 16.99100 27.07800
C  -2.18500 14.77300 29.87900
C  -3.22300 19.43300 29.10400
C  -2.21300 18.84100 24.51400
C  -1.82200 14.16700 25.04100
N  -2.58500 16.98200 29.20400
C  -2.56200 16.08300 30.18300
C  -2.90400 16.68200 31.58000
C  -3.74100 17.95500 31.11000
C  -3.12300 18.15900 29.73800
C  -5.23100 17.67600 30.94100
C  -1.62300 17.10100 32.37700
C  -1.84400 17.38800 33.86500
H  -0.80000 17.02400 34.81100
N  -2.15300 18.95200 26.92600
C  -2.67100 19.79100 27.85500
C  -2.58800 21.14700 27.27100
C  -2.15500 21.00600 25.85300
C  -2.18200 19.57400 25.69800
C  -2.85500 22.39700 28.05200
C  -1.78700 22.00400 24.80100
O  -1.66500 21.68100 23.57000
C  -1.65800 23.40500 25.24100
N  -2.23300 16.57800 25.04900
C  -2.24700 17.56000 24.14100
C  -2.16400 17.01500 22.74600
C  -1.84400 15.45800 22.89800
C  -1.88200 15.35900 24.44300
C  -3.41900 17.19600 21.88100
C  -0.59500 14.92100 22.15500
C  0.65800 15.50100 22.77200
N  -1.81800 14.84700 27.38100
C  -1.79500 13.85500 26.39000
C  -1.79500 12.55300 27.08200
C  -1.83500 12.88000 28.43600
C  -1.88500 14.29600 28.58000
C  -1.81900 11.27600 26.45500
C  -1.87200 12.36200 29.79400
O  -1.76000 11.24400 30.29900
C  -2.22300 13.56300 30.77900
C  -1.25100 13.50900 31.92600
O  -0.03700 13.73600 31.74700
O  -1.93000 13.43500 33.08100
C  -1.02500 13.40800 34.26100
H  -3.82700 20.21100 29.57500
H  -2.18600 19.44400 23.60400
H  -1.69200 13.24400 24.47300
H  -3.52200 16.04200 32.21000
H  -3.55300 18.82200 31.74300
H  -5.45200 16.61400 31.04700
H  -5.47900 18.01800 29.93600
H  -5.82000 18.29200 31.62100
H  -1.29900 18.08700 32.04400
H  -0.83800 16.35200 32.26700
H  -2.81200 17.01700 34.20300
H  -1.90600 18.46800 33.99900
H  -3.31200 22.17700 29.01600
H  -3.61900 22.95400 27.51000
H  -1.96100 23.01100 28.16200
H  -2.60300 23.73500 25.67300
H  -1.30300 23.96100 24.37400
H  -0.92000 23.45700 26.04200
H  -1.36000 17.49200 22.18700
H  -2.66000 14.83500 22.53100
H  -3.23500 17.73100 20.94900
H  -4.17200 17.70500 22.48200
H  -3.93500 16.27100 21.62500
H  -0.61200 15.23200 21.11100
H  -0.51600 13.83400 22.17600
H  0.74600 16.46900 22.28000
H  1.51900 14.87000 22.54900
H  0.52700 15.68800 23.83800
H  -1.10100 10.65800 26.99400
H  -1.56400 11.34900 25.39800
H  -2.85900 10.99200 26.61500
H  -3.25100 13.41000 31.10600
H  -1.27000 12.51300 34.83300
H  -1.13500 14.37200 34.75800
H  0.03200 13.23700 34.05400
Mg 40.74100 8.40300 29.69900
C  42.66000 10.02500 32.01600
C  38.73200 7.21500 32.07700
C  39.17900 6.75200 27.36300
C  43.28300 9.22800 27.34100
N  40.79300 8.45600 31.86800
C  41.50500 9.39200 32.54400
C  40.94800 9.63500 33.92000
C  39.85300 8.49700 34.00200
C  39.82700 7.94800 32.59200
C  40.10000 7.44100 35.10600
C  40.44100 11.18100 34.18500
C  40.87000 11.88200 35.48300
H  41.23900 10.96600 36.69200
N  39.13800 7.34400 29.69200
C  38.39900 6.91700 30.74900
C  37.34700 6.00300 30.37600
C  37.33700 6.02300 29.01400
C  38.65500 6.62800 28.64700
C  36.61000 5.29800 31.50000
C  36.33400 5.36600 28.04500
O  36.44200 5.38700 26.84100
C  35.20700 4.65100 28.73000
N  41.30000 7.91900 27.67200
C  40.36700 7.31400 26.91500
C  40.80200 7.26400 25.44700
C  41.95100 8.32700 25.38700
C  42.23200 8.49800 26.89400
C  41.21600 5.86100 24.82900
C  41.58000 9.72400 24.76100
C  40.48400 10.59900 25.31000
N  42.57200 9.48100 29.57000
C  43.55300 9.66900 28.59100
C  44.67900 10.46300 29.09900
C  44.36400 10.63700 30.45500
C  43.08700 10.02200 30.64800
C  45.85600 11.01300 28.33500
C  44.78800 11.17000 31.66800
O  45.80500 11.75000 32.01500
C  43.61600 11.01200 32.67100
C  44.29700 10.49000 33.87800
O  44.63700 9.31800 34.05700
O  44.61300 11.49900 34.74100
C  45.54500 11.24000 35.84300
H  37.99000 7.00700 32.85100
H  38.68100 6.27000 26.52000
H  43.95700 9.44200 26.50800
H  41.68000 9.37000 34.68300
H  38.87700 8.95900 34.14900
H  40.48500 6.53200 34.64400
H  39.14600 7.20600 35.57800
H  40.83000 7.87400 35.79000
H  39.35300 11.12200 34.15300
H  40.80700 11.84200 33.40000
H  40.04300 12.46600 35.88600
H  41.65400 12.60800 35.26800
H  37.22900 4.66200 32.13300
H  35.89000 4.51000 31.28000
H  36.12800 6.14400 31.99000
H  34.67500 5.32500 29.40100
H  35.72300 3.80100 29.17600
H  34.37800 4.27900 28.12900
H  39.88500 7.56300 24.93800
H  42.83200 7.86300 24.94300
H  41.11200 5.08600 25.58800
H  42.28100 5.83900 24.60100
H  40.70000 5.56000 23.91600
H  41.36300 9.40900 23.74000
H  42.43100 10.40400 24.73900
H  39.92000 10.04700 26.06300
H  39.77700 10.86400 24.52400
H  40.79900 11.50000 25.83600
H  46.78200 10.48700 28.56300
H  45.97200 12.07500 28.55200
H  45.60900 10.77100 27.30100
H  43.07400 11.94700 32.81400
H  46.05900 12.14500 36.16900
H  46.18500 10.38200 35.64300
H  45.04400 10.86200 36.73400


