%nproc=24
%mem=175gb
#p wB97XD/Def2SVP td=(nstates=5)

TDDFT excited states in gaussian

0 1
Mg 1.39700 7.67200 26.33400
C  1.72400 9.74100 29.05100
C  2.01300 4.99100 28.38100
C  1.18200 5.57500 23.58000
C  1.22200 10.43500 24.24700
N  1.88100 7.36900 28.50400
C  1.86000 8.39700 29.40300
C  2.08800 7.91400 30.75300
C  2.40000 6.43300 30.60700
C  2.12200 6.20500 29.05700
C  3.81300 5.91300 31.04400
C  0.86900 8.21500 31.69000
C  1.18400 8.50600 33.19800
H  2.44800 7.85400 33.79200
N  1.46600 5.54900 26.07500
C  1.71900 4.62900 27.07800
C  1.70700 3.27200 26.49500
C  1.45400 3.42700 25.06400
C  1.33100 4.87900 24.84700
C  1.96100 1.99300 27.27600
C  1.22600 2.33500 24.04500
O  0.94200 2.65000 22.87600
C  1.34900 0.88300 24.32000
N  1.30400 7.94800 24.20100
C  1.17000 6.94200 23.33200
C  0.89900 7.47700 21.91600
C  0.64800 9.06900 22.12400
C  1.00600 9.14600 23.65000
C  2.06300 7.12000 20.94100
C  -0.80600 9.55500 21.87400
C  -1.00500 10.45600 20.64600
N  1.52400 9.70800 26.54100
C  1.45100 10.73400 25.59600
C  1.56500 12.05000 26.26300
C  1.69000 11.65900 27.61700
C  1.66900 10.24300 27.72900
C  1.49300 13.37100 25.67200
C  1.73800 12.19000 28.99500
O  1.68200 13.31300 29.42100
C  1.80500 10.95700 29.96500
C  2.97400 11.12000 30.84400
O  4.12200 10.98100 30.39200
O  2.68100 11.28600 32.16300
C  3.77100 11.25200 33.13300
H  2.21100 4.15900 29.06000
H  1.15400 4.90100 22.72100
H  1.03400 11.27000 23.56900
H  2.96600 8.42700 31.14700
H  1.62000 5.81700 31.05600
H  4.56300 6.57700 31.47500
H  4.27400 5.43500 30.18000
H  3.77100 5.07400 31.73900
H  0.12500 7.42500 31.58700
H  0.27300 9.01100 31.24400
H  0.33700 8.21300 33.81900
H  1.41300 9.55400 33.38900
H  2.02800 2.15000 28.35200
H  2.91300 1.54300 26.99300
H  1.08700 1.34400 27.22400
H  1.03600 0.37200 23.41000
H  0.74800 0.54700 25.16600
H  2.36800 0.65900 24.63600
H  -0.06900 7.08000 21.61000
H  1.35900 9.68000 21.56800
H  1.72500 6.67300 20.00600
H  2.74700 6.40500 21.39900
H  2.59200 8.06400 20.80800
H  -1.22600 10.10700 22.71400
H  -1.49800 8.72100 21.75500
H  -0.24900 10.22000 19.89700
H  -0.86300 11.48900 20.96200
H  -2.04500 10.34200 20.34300
H  1.26400 14.14800 26.40100
H  0.76200 13.44400 24.86700
H  2.50500 13.65900 25.38700
H  0.85200 11.05500 30.48600
H  4.47400 12.08100 33.04700
H  4.27000 10.28300 33.12600
H  3.36500 11.36600 34.13800
Mg 46.36700 34.87300 28.25800
C  44.78600 32.87200 30.57800
C  46.38600 37.42000 30.77600
C  47.55600 36.98300 26.07000
C  45.97900 32.44300 25.82700
N  45.44200 35.14400 30.41100
C  45.07300 34.11700 31.15800
C  45.12500 34.48000 32.66900
C  45.08600 36.04500 32.56800
C  45.67500 36.28100 31.16800
C  43.63100 36.61800 32.70900
C  46.46000 33.91200 33.20000
C  46.69200 34.00900 34.71400
H  45.77100 34.85100 35.57400
N  47.01100 36.84800 28.33900
C  46.96000 37.70200 29.49400
C  47.69800 38.90500 29.13400
C  48.14000 38.73300 27.78500
C  47.54200 37.48800 27.30500
C  47.97900 40.11100 30.10600
C  49.09900 39.67100 26.98000
O  49.27000 39.43700 25.81500
C  49.74700 40.84400 27.64100
N  46.80600 34.69600 26.23000
C  47.30800 35.72100 25.50500
C  47.46400 35.39100 24.02100
C  47.08600 33.89200 23.98700
C  46.58100 33.65400 25.46800
C  46.60500 36.26500 23.03500
C  48.11600 32.92900 23.45400
C  49.59100 32.99000 23.91900
N  45.55600 33.03000 28.12500
C  45.46900 32.14000 27.09300
C  44.91700 30.91500 27.63200
C  44.64100 31.10300 29.03000
C  45.05100 32.44500 29.25900
C  44.67700 29.67800 26.82400
C  44.09100 30.54400 30.21900
O  43.56800 29.43800 30.47700
C  43.93800 31.83400 31.19500
C  44.25300 31.34600 32.61000
O  45.22200 30.77300 32.93400
O  43.18900 31.65700 33.40800
C  43.38400 31.62900 34.84300
H  46.32800 38.21100 31.52600
H  47.90200 37.66100 25.28700
H  45.81100 31.64300 25.10400
H  44.23500 34.14900 33.20400
H  45.76700 36.36500 33.35700
H  43.51000 37.05600 33.69900
H  42.93300 35.79700 32.54400
H  43.41600 37.43400 32.01900
H  47.26100 34.50400 32.75800
H  46.66000 32.91100 32.81900
H  47.74400 34.11200 34.98100
H  46.57400 32.98400 35.06600
H  47.70900 41.07100 29.66500
H  49.03500 40.03600 30.36500
H  47.45400 39.94800 31.04800
H  50.66300 40.94800 27.05900
H  50.08200 40.62400 28.65400
H  49.16800 41.73600 27.88000
H  48.52200 35.54500 23.81000
H  46.16900 33.69700 23.43100
H  46.31700 35.59300 22.22700
H  47.32700 37.01000 22.70000
H  45.80600 36.77400 23.57400
H  48.21500 33.30700 22.43700
H  47.86400 31.86800 23.45400
H  50.35800 33.20100 23.17500
H  49.94100 32.01500 24.25800
H  49.69200 33.75700 24.68700
H  44.20400 28.97200 27.50600
H  45.62900 29.23800 26.52400
H  44.15300 29.83100 25.88100
H  42.91200 32.17200 31.04800
H  42.52900 30.96500 34.97100
H  43.38800 32.61600 35.30600
H  44.28100 31.10000 35.16600


