%nproc=24
%mem=175gb
#p wB97XD/Def2SVP td=(nstates=5)

TDDFT excited states in gaussian

0 1
Mg 46.48800 44.18100 43.47500
C  43.15300 43.46100 43.30400
C  47.10800 40.75600 42.73500
C  49.77100 44.92500 43.24200
C  45.73500 47.57600 43.26500
N  45.18800 42.33600 42.67700
C  43.85400 42.27500 42.94800
C  43.32200 40.91600 42.58600
C  44.62300 40.02800 42.36600
C  45.76600 41.06300 42.61200
C  44.58600 38.65100 42.92100
C  42.20900 40.77400 41.44300
C  42.22600 41.75800 40.31100
H  42.13200 41.19200 38.90100
N  48.19100 42.96300 43.28600
C  48.25100 41.62900 43.02600
C  49.60100 41.16100 42.91600
C  50.41700 42.37800 43.18500
C  49.45800 43.50200 43.25700
C  50.07700 39.81200 42.65600
C  51.92500 42.49800 43.35200
O  52.62900 41.58000 43.12100
C  52.68900 43.74400 43.70500
N  47.56100 45.95400 43.15400
C  48.89600 45.98900 43.28400
C  49.46200 47.47200 42.97200
C  48.15100 48.31100 43.36800
C  47.10700 47.23300 43.19900
C  50.71200 47.88700 43.75300
C  48.00000 49.60500 42.54800
C  47.68500 50.93800 43.23700
N  44.79500 45.31200 43.20500
C  44.59800 46.68700 43.17600
C  43.22600 47.01600 43.20700
C  42.57500 45.79800 43.31300
C  43.57500 44.76200 43.30900
C  42.60800 48.38000 43.21500
C  41.37100 45.09400 43.47000
O  40.23700 45.56500 43.52900
C  41.64700 43.57300 43.29900
C  40.96100 42.96000 44.51100
O  40.13800 42.02200 44.45100
O  41.52200 43.52500 45.63200
C  41.27100 42.99100 46.99300
H  47.22800 39.72900 42.38400
H  50.80000 45.16300 42.96500
H  45.50900 48.64400 43.27100
H  42.74600 40.53700 43.43100
H  44.70600 39.88500 41.28900
H  45.47200 38.39300 43.50100
H  44.34100 37.90700 42.16300
H  43.78400 38.58200 43.65600
H  41.18300 40.86000 41.80100
H  42.35800 39.83500 40.90900
H  42.98200 42.53800 40.39500
H  41.27000 42.28200 40.33700
H  49.35900 39.10300 43.06700
H  51.06100 39.59900 43.07200
H  50.12200 39.70100 41.57200
H  51.89900 44.16700 44.32600
H  52.89000 44.37800 42.84200
H  53.62800 43.61700 44.24400
H  49.58000 47.51900 41.88900
H  48.02200 48.62000 44.40500
H  50.38700 48.59700 44.51400
H  51.51000 48.17200 43.06800
H  51.16800 47.06300 44.30100
H  47.21200 49.41800 41.81800
H  48.88600 49.70600 41.92100
H  48.29300 51.80900 42.99200
H  47.59300 50.84600 44.32000
H  46.63600 51.07800 42.97800
H  41.68900 48.46100 43.79600
H  42.39500 48.66700 42.18500
H  43.24900 49.14100 43.66200
H  41.15500 43.34600 42.35400
H  42.16000 43.01500 47.62300
H  40.93100 41.96000 46.89400
H  40.51300 43.43800 47.63500
Mg -5.09800 24.63300 26.68400
C  -3.70200 26.36700 29.52200
C  -6.11300 22.14300 28.93500
C  -6.48000 23.09600 24.13300
C  -3.72900 27.06700 24.58100
N  -4.87100 24.33000 29.01500
C  -4.47600 25.23800 29.94600
C  -4.87000 24.81900 31.35300
C  -5.34300 23.26900 31.18300
C  -5.42800 23.22100 29.63000
C  -4.42000 22.22500 31.86000
C  -5.97200 25.74300 31.97300
C  -5.56400 26.39400 33.32000
H  -6.48200 25.91600 34.58700
N  -6.12400 22.92100 26.55900
C  -6.45400 21.95500 27.56900
C  -7.23800 20.80800 27.05300
C  -7.37200 21.15200 25.66800
C  -6.65700 22.41400 25.41400
C  -7.70400 19.61500 27.89000
C  -8.01000 20.37100 24.58300
O  -8.30600 20.80000 23.47300
C  -8.47200 18.93600 24.90400
N  -5.23600 25.12700 24.71500
C  -5.84300 24.30800 23.82600
C  -5.57400 24.69000 22.39700
C  -4.73400 25.98700 22.49800
C  -4.58300 26.13300 24.02900
C  -4.97900 23.58700 21.54700
C  -5.55400 27.25800 21.86300
C  -4.76800 28.10300 20.72000
N  -3.71900 26.23300 26.92800
C  -3.33300 27.18000 25.94900
C  -2.55400 28.22500 26.62300
C  -2.81300 27.99000 27.99900
C  -3.40400 26.73200 28.12600
C  -1.71900 29.35800 26.03400
C  -2.39200 28.46300 29.34800
O  -1.66000 29.39300 29.78700
C  -3.08100 27.46800 30.36000
C  -2.03500 26.94900 31.30200
O  -0.94600 26.57900 30.96500
O  -2.47500 27.07900 32.59000
C  -1.38400 26.91100 33.58300
H  -6.28600 21.33800 29.65200
H  -6.91400 22.63300 23.24400
H  -3.32400 27.85900 23.94800
H  -3.94900 24.82500 31.93600
H  -6.36100 23.10200 31.53600
H  -3.94100 21.58900 31.11500
H  -4.98800 21.61200 32.56100
H  -3.64700 22.62700 32.51500
H  -6.89500 25.19600 32.16700
H  -6.22100 26.57200 31.31000
H  -5.77000 27.46400 33.35800
H  -4.50500 26.32600 33.56700
H  -7.71300 19.74200 28.97300
H  -7.20000 18.67100 27.68300
H  -8.74200 19.45800 27.59500
H  -7.62000 18.31700 25.18500
H  -9.03200 18.48700 24.08300
H  -9.15600 18.98900 25.75100
H  -6.53500 24.86100 21.91000
H  -3.75100 25.85800 22.04600
H  -5.68000 23.16900 20.82400
H  -4.66700 22.69800 22.09500
H  -4.09700 23.98900 21.04800
H  -5.86900 27.99500 22.60100
H  -6.48500 26.95600 21.38400
H  -4.00100 27.42900 20.33800
H  -4.32800 29.01700 21.12100
H  -5.40200 28.28200 19.85200
H  -1.71900 30.24300 26.67000
H  -2.23000 29.70200 25.13400
H  -0.77900 28.87000 25.77600
H  -3.74400 28.08300 30.96800
H  -0.90300 25.95500 33.37700
H  -1.91800 26.79500 34.52600
H  -0.58100 27.64700 33.62200


