%nproc=24
%mem=175gb
#p wB97XD/Def2SVP td=(nstates=5)

TDDFT excited states in gaussian

0 1
Mg 1.27700 7.97600 26.81300
C  1.70500 10.25900 29.27500
C  1.82700 5.41400 29.09300
C  0.85500 5.69300 24.34900
C  1.21800 10.51800 24.46400
N  1.59300 7.92000 28.89400
C  1.77500 8.96200 29.74400
C  1.81600 8.52800 31.18600
C  2.13100 6.98700 31.08800
C  1.79700 6.74800 29.57900
C  3.53500 6.42400 31.56400
C  0.41400 8.75400 31.91200
C  0.55800 8.89600 33.45600
H  1.71800 8.24400 34.22700
N  1.40400 5.81900 26.67300
C  1.63700 4.96400 27.78200
C  1.59900 3.60000 27.34800
C  1.32800 3.64600 25.93400
C  1.17100 5.11200 25.62400
C  1.72200 2.42000 28.24700
C  1.18400 2.49900 24.94000
O  1.05900 2.62000 23.68600
C  1.20700 1.06700 25.44700
N  1.13600 8.07200 24.71300
C  0.77100 6.99400 23.90500
C  0.28500 7.38700 22.48000
C  0.38900 9.00800 22.61900
C  0.90800 9.24400 23.99000
C  1.23400 6.77600 21.44100
C  -0.88200 9.73900 22.30100
C  -0.72400 10.77600 21.22600
N  1.52400 9.91600 26.73700
C  1.45400 10.87900 25.73800
C  1.65900 12.16800 26.28700
C  1.81400 12.01500 27.69100
C  1.62000 10.64100 27.94600
C  1.67300 13.48200 25.60500
C  2.15100 12.69400 28.92300
O  2.45500 13.83200 29.22300
C  2.00700 11.52600 30.01000
C  3.06400 11.59000 31.05300
O  4.23800 11.79300 30.87600
O  2.59100 11.43200 32.29900
C  3.63300 11.47700 33.36400
H  2.18200 4.70500 29.84400
H  0.85400 4.95200 23.54700
H  1.09900 11.38200 23.80700
H  2.67100 8.94100 31.72100
H  1.35600 6.44600 31.63000
H  4.07900 7.25400 32.01500
H  4.16900 5.94900 30.81700
H  3.32200 5.63000 32.28000
H  -0.18400 7.89400 31.61000
H  -0.01700 9.66700 31.50100
H  -0.39200 8.49700 33.81200
H  0.49500 9.96300 33.66800
H  0.81200 2.12400 28.76900
H  2.52200 2.67200 28.94200
H  2.18600 1.56000 27.76500
H  2.26000 0.80200 25.54100
H  0.75700 0.48100 24.64600
H  0.71900 0.92900 26.41200
H  -0.69500 6.92500 22.36000
H  1.13100 9.36700 21.90500
H  2.13800 6.31200 21.83600
H  1.41900 7.51100 20.65800
H  0.69100 5.93800 21.00300
H  -1.27500 10.30600 23.14500
H  -1.71400 9.09900 22.00700
H  -1.48700 10.70900 20.45100
H  0.24000 10.68600 20.72600
H  -0.68400 11.71900 21.77200
H  2.02800 13.48300 24.57400
H  2.51200 13.99500 26.07600
H  0.69500 13.95600 25.68900
H  1.08300 11.88900 30.46100
H  3.95200 12.49700 33.58300
H  4.44500 10.77600 33.17000
H  3.18800 11.10700 34.28800
Mg 8.88300 3.35600 27.86700
C  10.38300 1.75300 30.56400
C  7.38700 5.53100 30.05200
C  7.19500 4.67800 25.21800
C  10.33700 0.83700 25.82400
N  8.85600 3.59100 30.04700
C  9.65000 2.88400 30.91100
C  9.43500 3.49700 32.29700
C  8.27700 4.46700 32.14400
C  8.19100 4.56300 30.62500
C  6.95700 4.16900 32.80300
C  10.74000 4.12300 32.98500
C  10.49500 4.94200 34.29300
H  10.56500 4.20300 35.65500
N  7.60700 4.98100 27.67200
C  7.08500 5.72600 28.67800
C  6.18300 6.66800 28.06800
C  6.13000 6.40800 26.66700
C  6.96700 5.31400 26.45500
C  5.47200 7.68700 28.90400
C  5.19000 7.09800 25.63600
O  4.95300 6.60000 24.55000
C  4.43400 8.30700 25.92000
N  8.80500 2.84800 25.93900
C  8.07600 3.55600 24.98400
C  8.26300 2.99400 23.56400
C  9.45300 1.99700 23.77400
C  9.56600 1.92700 25.28800
C  7.04500 2.56000 22.85900
C  10.87100 2.27700 23.02500
C  11.45600 1.24800 22.05300
N  10.10500 1.54900 28.11900
C  10.57400 0.66100 27.19200
C  11.35500 -0.36000 27.80500
C  11.38100 0.07200 29.18600
C  10.52100 1.19800 29.31900
C  12.01900 -1.46000 27.06800
C  11.98300 -0.20000 30.47100
O  12.81500 -0.99400 30.86400
C  11.31100 0.93300 31.44800
C  10.73600 0.32300 32.67400
O  9.77600 -0.41600 32.67100
O  11.39000 0.69300 33.78900
C  10.74800 0.34700 35.11500
H  6.95000 6.26000 30.73800
H  6.63700 5.11600 24.38800
H  10.70900 0.18100 25.03400
H  9.14100 2.60500 32.85000
H  8.55100 5.42600 32.58300
H  6.38200 3.89500 31.91900
H  6.56900 5.01600 33.36900
H  6.99000 3.26400 33.41000
H  11.10800 4.77800 32.19500
H  11.45800 3.33300 33.20200
H  9.50400 5.39400 34.30500
H  11.21400 5.76100 34.31200
H  5.72000 7.75000 29.96400
H  4.42300 7.39300 28.89100
H  5.49900 8.68800 28.47300
H  3.85400 8.38500 26.83900
H  3.77700 8.64800 25.12000
H  5.21700 9.06500 25.91700
H  8.64800 3.90400 23.10300
H  8.95400 1.07600 23.47300
H  6.77200 3.11000 21.95800
H  6.21600 2.63700 23.56300
H  7.08300 1.53300 22.49600
H  11.62300 2.42400 23.80000
H  10.95600 3.19100 22.43600
H  12.28200 0.65800 22.45100
H  11.66900 1.63000 21.05500
H  10.70100 0.47500 21.90900
H  11.30800 -1.87500 26.35400
H  12.43500 -2.21900 27.73000
H  12.73100 -1.00300 26.38000
H  12.14100 1.55900 31.77400
H  11.59600 0.40500 35.79700
H  10.32500 -0.65500 35.04600
H  10.03300 1.14100 35.33100


