%nproc=24
%mem=175gb
#p cam-b3lyp/Def2SVP td=(nstates=5)

TDDFT excited states in gaussian

0 1
Mg 0.00000 0.00000 0.00000
C -0.21700 -2.21800 2.80100
C -1.25500 2.44200 2.02600
C -0.24500 1.85000 -2.56400
C 0.14600 -2.82400 -2.03700
N -0.61700 -0.00900 2.12600
C -0.59400 -0.90800 3.10500
C -0.93600 -0.30900 4.50200
C -1.77300 0.96400 4.03200
C -1.15500 1.16800 2.66000
C -3.26300 0.68500 3.86300
C 0.34500 0.11000 5.29900
C 0.12400 0.39700 6.78700
H 1.16800 0.03300 7.73300
N -0.18500 1.96100 -0.15200
C -0.70300 2.80000 0.77700
C -0.62000 4.15600 0.19300
C -0.18700 4.01500 -1.22500
C -0.21400 2.58300 -1.38000
C -0.88700 5.40600 0.97400
C 0.18100 5.01300 -2.27700
O 0.30300 4.69000 -3.50800
C 0.31000 6.41400 -1.83700
N -0.26500 -0.41300 -2.02900
C -0.27900 0.56900 -2.93700
C -0.19600 0.02400 -4.33200
C 0.12400 -1.53300 -4.18000
C 0.08600 -1.63200 -2.63500
C -1.45100 0.20500 -5.19700
C 1.37300 -2.07000 -4.92300
C 2.62600 -1.49000 -4.30600
N 0.15000 -2.14400 0.30300
C 0.17300 -3.13600 -0.68800
C 0.17300 -4.43800 0.00400
C 0.13300 -4.11100 1.35800
C 0.08300 -2.69500 1.50200
C 0.14900 -5.71500 -0.62300
C 0.09600 -4.62900 2.71600
O 0.20800 -5.74700 3.22100
C -0.25500 -3.42800 3.70100
C 0.71700 -3.48200 4.84800
O 1.93100 -3.25500 4.66900
O 0.03800 -3.55600 6.00300
C 0.94300 -3.58300 7.18300
H -1.85900 3.22000 2.49700
H -0.21800 2.45300 -3.47400
H 0.27600 -3.74700 -2.60500
H -1.55400 -0.94900 5.13200
H -1.58500 1.83100 4.66500
H -3.48400 -0.37700 3.96900
H -3.51100 1.02700 2.85800
H -3.85200 1.30100 4.54300
H 0.66900 1.09600 4.96600
H 1.13000 -0.63900 5.18900
H -0.84400 0.02600 7.12500
H 0.06200 1.47700 6.92100
H -1.34400 5.18600 1.93800
H -1.65100 5.96300 0.43200
H 0.00700 6.02000 1.08400
H -0.63500 6.74400 -1.40500
H 0.66500 6.97000 -2.70400
H 1.04800 6.46600 -1.03600
H 0.60800 0.50100 -4.89100
H -0.69200 -2.15600 -4.54700
H -1.26700 0.74000 -6.12900
H -2.20400 0.71400 -4.59600
H -1.96700 -0.72000 -5.45300
H 1.35600 -1.75900 -5.96700
H 1.45200 -3.15700 -4.90200
H 2.71400 -0.52200 -4.79800
H 3.48700 -2.12100 -4.52900
H 2.49500 -1.30300 -3.24000
H 0.86700 -6.33300 -0.08400
H 0.40400 -5.64200 -1.68000
H -0.89100 -5.99900 -0.46300
H -1.28300 -3.58100 4.02800
H 0.69800 -4.47800 7.75500
H 0.83300 -2.61900 7.68000
H 2.00000 -3.75400 6.97600
Mg 10.51809 0.94169 0.80469
C 10.71658 -2.32358 -0.67103
C 9.55290 -0.58760 3.69679
C 9.89961 3.81471 2.00079
C 10.37740 2.24114 -2.42600
N 10.21146 -1.18686 1.32191
C 10.37696 -2.34335 0.69781
C 10.24522 -3.59165 1.61101
C 9.33454 -2.94887 2.76703
C 9.74550 -1.48559 2.61669
C 7.84439 -3.05741 2.48950
C 11.63023 -4.07147 2.17094
C 11.61750 -5.45951 2.81509
H 12.79484 -6.30946 2.66036
N 10.30579 1.53020 2.68807
C 9.92877 0.77299 3.73963
C 9.90487 1.67807 4.89912
C 10.13865 3.06600 4.41569
C 10.10225 2.85552 2.98235
C 9.75538 1.18875 6.31038
C 10.34621 4.36939 5.12583
O 10.29335 5.48990 4.50577
C 10.52031 4.30099 6.58408
N 9.97380 2.74660 -0.07188
C 9.81773 3.85655 0.67081
C 9.69857 5.08387 -0.20090
C 10.05089 4.59463 -1.68215
C 10.23374 3.08479 -1.41319
C 8.33185 5.76830 -0.20285
C 11.18361 5.35576 -2.42396
C 12.51034 5.09269 -1.74870
N 10.72527 0.15717 -1.19773
C 10.60444 0.87089 -2.41020
C 10.71168 -0.11290 -3.50705
C 10.86563 -1.34350 -2.85098
C 10.83484 -1.14345 -1.44438
C 10.61482 0.17727 -4.89721
C 11.03654 -2.76757 -3.02846
O 11.21876 -3.50685 -3.99490
C 10.82085 -3.48126 -1.62471
C 11.94750 -4.45695 -1.42172
O 13.11704 -4.05411 -1.29323
O 11.43546 -5.68058 -1.19612
C 12.51405 -6.68100 -0.97785
H 9.02602 -0.94579 4.58166
H 9.79202 4.84098 2.35949
H 10.44141 2.57896 -3.46256
H 9.73356 -4.43301 1.15925
H 9.61627 -3.32530 3.74697
H 7.64580 -3.44490 1.50129
H 7.45295 -2.05335 2.58789
H 7.35758 -3.64855 3.27045
H 11.89411 -3.46140 3.04440
H 12.38328 -4.03407 1.40796
H 10.70552 -6.01829 2.57221
H 11.57645 -5.33811 3.90026
H 9.43662 0.13953 6.34070
H 8.91848 1.73978 6.75291
H 10.64984 1.36090 6.91285
H 9.64794 3.82937 7.03020
H 10.74457 5.32172 6.89981
H 11.37572 3.65260 6.80426
H 10.41260 5.84140 0.09814
H 9.18920 4.69117 -2.35890
H 8.37659 6.83326 0.09367
H 7.67337 5.21756 0.45566
H 7.79697 5.72886 -1.15025
H 11.01518 6.43401 -2.36780
H 11.26224 5.09638 -3.47445
H 12.51530 5.81316 -0.92530
H 13.33323 5.27436 -2.43709
H 12.53580 4.08901 -1.30865
H 11.39863 -0.38435 -5.38784
H 10.70986 1.24415 -5.08823
H 9.60516 -0.18822 -5.10285
H 9.85007 -3.97747 -1.65522
H 12.35579 -7.48487 -1.70341
H 12.45854 -6.95123 0.09343
H 13.52934 -6.38236 -1.21118

