%nproc=24
%mem=175gb
#p cam-b3lyp/Def2SVP td=(nstates=5)

TDDFT excited states in gaussian

0 1
Mg 31.53916 2.83957 2.40358
C 31.54731 -0.55041 3.58133
C 30.34191 3.74343 5.46695
C 31.09403 5.76421 1.25652
C 31.63099 1.56663 -0.83939
N 31.04945 1.65824 4.20827
C 31.15134 0.38526 4.55968
C 30.88704 0.11025 6.06436
C 29.98164 1.39636 6.38847
C 30.50929 2.34399 5.31317
C 28.50020 1.16787 6.13857
C 32.20711 0.10858 6.91255
C 32.06171 -0.45604 8.32740
H 33.17583 -1.21180 8.89311
N 31.29552 4.56691 3.34989
C 30.81882 4.75023 4.59906
C 30.81679 6.20473 4.81948
C 31.17581 6.87364 3.53948
C 31.18220 5.73685 2.64073
C 30.57252 6.82346 6.16519
C 31.45330 8.30212 3.18082
O 31.51188 8.69090 1.96088
C 31.56171 9.24979 4.29960
N 31.17111 3.56243 0.48933
C 31.07019 4.88287 0.25653
C 31.08123 5.17807 -1.22439
C 31.45548 3.79529 -1.93533
C 31.51096 2.87903 -0.69324
C 29.77217 5.71121 -1.80621
C 32.67263 3.80687 -2.90026
C 33.94650 4.04341 -2.12136
N 31.76757 0.88828 1.50449
C 31.75158 0.57651 0.12731
C 31.82803 -0.89438 0.01299
C 31.86025 -1.34110 1.34261
C 31.78722 -0.22841 2.22357
C 31.81075 -1.63639 -1.20160
C 31.92871 -2.50157 2.20129
O 32.09324 -3.70740 2.02062
C 31.60162 -2.04906 3.68946
C 32.64096 -2.64888 4.59638
O 33.83166 -2.30033 4.51061
O 32.02788 -3.36804 5.55415
C 33.01682 -3.97398 6.48509
H 29.75331 4.10599 6.31015
H 31.05075 6.75868 0.80638
H 31.76313 1.09777 -1.81683
H 30.33140 -0.79690 6.26959
H 30.19330 1.78876 7.37972
H 28.31319 0.21294 5.67029
H 28.18310 1.97516 5.49143
H 27.93792 1.28881 7.06892
H 32.48090 1.14444 7.15086
H 32.99146 -0.40932 6.39564
H 31.12033 -1.00348 8.45801
H 31.98561 0.37895 9.02813
H 30.17336 6.09139 6.87803
H 29.76284 7.55062 6.04058
H 31.45209 7.33782 6.55821
H 30.63823 9.23801 4.87362
H 31.85036 10.20158 3.84943
H 32.35520 8.90686 4.97293
H 31.83831 5.91384 -1.46642
H 30.63218 3.42403 -2.56318
H 29.88616 6.68685 -2.31533
H 29.04701 5.78207 -1.00643
H 29.27514 5.04625 -2.51048
H 32.58512 4.63285 -3.61036
H 32.77416 2.89451 -3.47843
H 33.97287 5.13214 -2.01616
H 34.80842 3.67958 -2.67701
H 33.87695 3.61651 -1.11410
H 32.56871 -2.40283 -1.10903
H 31.99499 -0.99578 -2.06152
H 30.78536 -2.01522 -1.18415
H 30.59775 -2.40352 3.92649
H 32.82734 -5.05180 6.49523
H 32.89690 -3.43244 7.44222
H 34.06071 -3.94548 6.19541

