%nproc=24
%mem=175gb
#p cam-b3lyp/Def2SVP td=(nstates=5)

TDDFT excited states in gaussian

0 1
Mg 7.89027 0.71575 0.59385
C 7.27889 3.89554 2.14117
C 7.10137 2.18091 -2.38366
C 7.98148 -2.16440 -0.73423
C 7.51243 -0.73229 3.74125
N 7.28504 2.77877 0.07433
C 7.14618 3.91709 0.73712
C 6.92765 5.16283 -0.16284
C 6.32745 4.42316 -1.45572
C 6.96838 3.04923 -1.27081
C 4.81776 4.25642 -1.40699
C 8.27072 5.90253 -0.49605
C 8.10325 7.29444 -1.10947
H 9.07268 8.32963 -0.76155
N 8.06648 0.18450 -1.31017
C 7.71808 0.91051 -2.39313
C 8.02811 0.06834 -3.55881
C 8.43419 -1.27751 -3.07045
C 8.15025 -1.14138 -1.65591
C 8.00208 0.58691 -4.96730
C 8.97497 -2.49110 -3.76396
O 9.03405 -3.63030 -3.17953
C 9.34632 -2.32771 -5.17707
N 7.55682 -1.19418 1.34439
C 7.71390 -2.27974 0.56670
C 7.69073 -3.54692 1.38773
C 7.72767 -3.07069 2.91398
C 7.67336 -1.54161 2.70334
C 6.48427 -4.45954 1.16870
C 8.85733 -3.65425 3.80616
C 10.19966 -3.13275 3.34618
N 7.65632 1.43352 2.61823
C 7.48902 0.65585 3.78499
C 7.25510 1.59285 4.90291
C 7.27982 2.85964 4.30031
C 7.49260 2.72079 2.90212
C 7.00878 1.22794 6.25653
C 7.16372 4.28218 4.52744
O 7.06589 4.99770 5.52353
C 7.03183 5.00949 3.12031
C 7.98192 6.17556 3.10929
O 9.21083 5.98999 3.15359
O 7.29686 7.29949 2.83027
C 8.19800 8.48215 2.79727
H 6.65451 2.48072 -3.33198
H 8.11423 -3.17646 -1.12358
H 7.48313 -1.09997 4.76917
H 6.21220 5.88038 0.22061
H 6.67777 4.88683 -2.37422
H 4.40964 4.55827 -0.45386
H 4.63216 3.20478 -1.58207
H 4.35268 4.78769 -2.24232
H 8.76552 5.38804 -1.32985
H 8.89775 5.96331 0.37214
H 7.07997 7.67334 -0.99862
H 8.24465 7.21668 -2.19020
H 7.50770 1.56437 -5.02700
H 7.35227 -0.08170 -5.54224
H 8.99159 0.60138 -5.42917
H 8.47853 -1.99660 -5.74255
H 9.79452 -3.27813 -5.47321
H 10.09402 -1.53029 -5.25237
H 8.56548 -4.15344 1.18759
H 6.80746 -3.34702 3.44942
H 6.76300 -5.48576 0.86334
H 5.84150 -4.00359 0.42742
H 5.81769 -4.55707 2.02390
H 8.89578 -4.74170 3.70552
H 8.73273 -3.43265 4.86085
H 10.45514 -3.80342 2.52034
H 10.93154 -3.19827 4.14873
H 10.10849 -2.12137 2.93334
H 7.59798 1.89551 6.87110
H 7.26512 0.18670 6.44056
H 5.93076 1.40130 6.31219
H 5.99384 5.32611 3.01120
H 7.79279 9.21240 3.50453
H 8.25283 8.78641 1.73511
H 9.20495 8.35577 3.17742

