%nproc=24
%mem=175gb
#p cam-b3lyp/Def2SVP td=(nstates=5)

TDDFT excited states in gaussian

0 1
Mg 0.00000 0.00000 0.00000
C -0.21700 -2.21800 2.80100
C -1.25500 2.44200 2.02600
C -0.24500 1.85000 -2.56400
C 0.14600 -2.82400 -2.03700
N -0.61700 -0.00900 2.12600
C -0.59400 -0.90800 3.10500
C -0.93600 -0.30900 4.50200
C -1.77300 0.96400 4.03200
C -1.15500 1.16800 2.66000
C -3.26300 0.68500 3.86300
C 0.34500 0.11000 5.29900
C 0.12400 0.39700 6.78700
H 1.16800 0.03300 7.73300
N -0.18500 1.96100 -0.15200
C -0.70300 2.80000 0.77700
C -0.62000 4.15600 0.19300
C -0.18700 4.01500 -1.22500
C -0.21400 2.58300 -1.38000
C -0.88700 5.40600 0.97400
C 0.18100 5.01300 -2.27700
O 0.30300 4.69000 -3.50800
C 0.31000 6.41400 -1.83700
N -0.26500 -0.41300 -2.02900
C -0.27900 0.56900 -2.93700
C -0.19600 0.02400 -4.33200
C 0.12400 -1.53300 -4.18000
C 0.08600 -1.63200 -2.63500
C -1.45100 0.20500 -5.19700
C 1.37300 -2.07000 -4.92300
C 2.62600 -1.49000 -4.30600
N 0.15000 -2.14400 0.30300
C 0.17300 -3.13600 -0.68800
C 0.17300 -4.43800 0.00400
C 0.13300 -4.11100 1.35800
C 0.08300 -2.69500 1.50200
C 0.14900 -5.71500 -0.62300
C 0.09600 -4.62900 2.71600
O 0.20800 -5.74700 3.22100
C -0.25500 -3.42800 3.70100
C 0.71700 -3.48200 4.84800
O 1.93100 -3.25500 4.66900
O 0.03800 -3.55600 6.00300
C 0.94300 -3.58300 7.18300
H -1.85900 3.22000 2.49700
H -0.21800 2.45300 -3.47400
H 0.27600 -3.74700 -2.60500
H -1.55400 -0.94900 5.13200
H -1.58500 1.83100 4.66500
H -3.48400 -0.37700 3.96900
H -3.51100 1.02700 2.85800
H -3.85200 1.30100 4.54300
H 0.66900 1.09600 4.96600
H 1.13000 -0.63900 5.18900
H -0.84400 0.02600 7.12500
H 0.06200 1.47700 6.92100
H -1.34400 5.18600 1.93800
H -1.65100 5.96300 0.43200
H 0.00700 6.02000 1.08400
H -0.63500 6.74400 -1.40500
H 0.66500 6.97000 -2.70400
H 1.04800 6.46600 -1.03600
H 0.60800 0.50100 -4.89100
H -0.69200 -2.15600 -4.54700
H -1.26700 0.74000 -6.12900
H -2.20400 0.71400 -4.59600
H -1.96700 -0.72000 -5.45300
H 1.35600 -1.75900 -5.96700
H 1.45200 -3.15700 -4.90200
H 2.71400 -0.52200 -4.79800
H 3.48700 -2.12100 -4.52900
H 2.49500 -1.30300 -3.24000
H 0.86700 -6.33300 -0.08400
H 0.40400 -5.64200 -1.68000
H -0.89100 -5.99900 -0.46300
H -1.28300 -3.58100 4.02800
H 0.69800 -4.47800 7.75500
H 0.83300 -2.61900 7.68000
H 2.00000 -3.75400 6.97600
Mg 15.77270 1.42765 1.19938
C 15.24938 1.97504 4.70731
C 14.64240 4.60487 0.68721
C 15.79447 0.82697 -1.91608
C 15.76029 -1.99174 1.87266
N 15.06692 2.99029 2.59662
C 14.97048 3.10639 3.91251
C 14.62923 4.53710 4.40868
C 13.91552 5.08855 3.08000
C 14.60525 4.20120 2.04580
C 12.42362 4.80292 3.03546
C 15.91196 5.36988 4.75953
C 15.64784 6.65991 5.53915
H 16.62297 7.07910 6.54208
N 15.76216 2.67004 -0.34817
C 15.28527 3.93223 -0.37515
C 15.49230 4.41122 -1.75060
C 15.97949 3.27244 -2.57554
C 15.84143 2.18349 -1.62938
C 15.30699 5.84664 -2.14891
C 16.47417 3.17688 -3.98705
O 16.62138 2.04695 -4.57392
C 16.69205 4.44806 -4.69284
N 15.56560 -0.32460 0.09981
C 15.66690 -0.31549 -1.24093
C 15.76011 -1.71894 -1.79048
C 15.94451 -2.66784 -0.51643
C 15.83159 -1.61131 0.60445
C 14.55980 -2.19393 -2.60902
C 17.17483 -3.61599 -0.51726
C 18.44887 -2.80838 -0.41734
N 15.73388 0.19135 2.97085
C 15.70802 -1.21946 3.02602
C 15.56940 -1.59710 4.44749
C 15.50052 -0.36982 5.12389
C 15.56961 0.69734 4.18800
C 15.47448 -2.92554 4.94986
C 15.37440 0.26555 6.41583
O 15.36373 -0.12967 7.58091
C 15.07893 1.81121 6.19214
C 15.99424 2.59421 7.09306
O 17.22519 2.57157 6.91738
O 15.25686 3.40721 7.87130
C 16.12080 4.21278 8.77491
H 14.09196 5.50015 0.39674
H 15.91031 0.56350 -2.96996
H 15.84724 -3.03780 2.17410
H 13.94055 4.57596 5.24413
H 14.15683 6.13410 2.90693
H 12.10996 4.17036 3.85254
H 12.24624 4.31219 2.08743
H 11.86125 5.74035 2.99946
H 16.32939 5.79074 3.83576
H 16.62447 4.76736 5.28862
H 14.63285 6.69057 5.95365
H 15.67760 7.49974 4.84071
H 14.78561 6.41622 -1.36972
H 14.61710 5.85590 -2.99970
H 16.24229 6.32513 -2.44712
H 15.76227 5.01141 -4.71750
H 17.12976 4.17656 -5.65543
H 17.40833 5.04782 -4.12027
H 16.62361 -1.82508 -2.43562
H 15.09211 -3.35156 -0.39084
H 14.82988 -2.51896 -3.63151
H 13.83239 -1.39381 -2.64404
H 13.98860 -3.00607 -2.16251
H 17.22884 -4.16549 -1.46028
H 17.15559 -4.34924 0.28209
H 18.63296 -2.50868 -1.45338
H 19.26183 -3.42131 -0.03336
H 18.29073 -1.89451 0.16703
H 16.10827 -2.97333 5.82538
H 15.77371 -3.65606 4.20115
H 14.40428 -2.97571 5.16761
H 14.02788 1.98139 6.42857
H 15.77403 4.02864 9.79644
H 16.05719 5.25196 8.40099
H 17.16467 3.93201 8.85207

