%nproc=24
%mem=175gb
#p cam-b3lyp/Def2SVP td=(nstates=5)

TDDFT excited states in gaussian

0 1
Mg 15.77281 1.42775 1.19792
C 15.20369 2.63170 4.53043
C 14.70121 4.46600 0.07752
C 15.83353 0.25162 -1.74834
C 15.69560 -1.80356 2.50114
N 15.07026 3.23410 2.26364
C 14.95521 3.59682 3.53232
C 14.62904 5.09952 3.74461
C 13.94495 5.40025 2.32318
C 14.63651 4.32556 1.48684
C 12.44958 5.13027 2.30583
C 15.91922 5.96711 3.95618
C 15.66352 7.38399 4.47466
H 16.62946 7.97193 5.39865
N 15.80609 2.35694 -0.55538
C 15.34979 3.59748 -0.82766
C 15.58578 3.80657 -2.26459
C 16.06760 2.52688 -2.85190
C 15.89755 1.63715 -1.72073
C 15.42951 5.14369 -2.92874
C 16.58261 2.16130 -4.21106
O 16.72098 0.93938 -4.57246
C 16.83162 3.27418 -5.13895
N 15.55504 -0.49727 0.44345
C 15.67733 -0.74176 -0.87306
C 15.75679 -2.22460 -1.14742
C 15.90623 -2.91920 0.28533
C 15.79268 -1.66937 1.18556
C 14.56196 -2.82980 -1.88397
C 17.12120 -3.86610 0.48509
C 18.40620 -3.07033 0.45481
N 15.68678 0.54726 3.16906
C 15.63767 -0.82755 3.48776
C 15.47095 -0.92933 4.95209
C 15.41105 0.40405 5.38455
C 15.51164 1.27518 4.26630
C 15.34714 -2.13826 5.69322
C 15.27494 1.27260 6.53163
O 15.23986 1.10373 7.74982
C 15.00758 2.75223 6.01624
C 15.92107 3.67902 6.77063
O 17.15409 3.60816 6.62485
O 15.18467 4.63317 7.36871
C 16.04712 5.58329 8.12055
H 14.16965 5.29758 -0.38595
H 15.96155 -0.20680 -2.73168
H 15.76123 -2.77528 2.99523
H 13.92814 5.30354 4.54516
H 14.20550 6.39145 1.96125
H 12.11322 4.66669 3.22131
H 12.27920 4.47228 1.46376
H 11.90279 6.05125 2.08412
H 16.35761 6.20140 2.97758
H 16.61375 5.46587 4.60195
H 14.64281 7.50491 4.85739
H 15.71748 8.07702 3.63156
H 14.90517 5.85621 -2.28006
H 14.75319 5.00151 -3.77859
H 16.37682 5.54567 -3.29437
H 15.91140 3.83458 -5.28597
H 17.27989 2.82097 -6.02525
H 17.54833 3.96180 -4.67623
H 16.62843 -2.46111 -1.74525
H 15.04123 -3.55625 0.52152
H 14.84273 -3.34473 -2.82211
H 13.84799 -2.04140 -2.08194
H 13.97106 -3.53617 -1.30339
H 17.18115 -4.58380 -0.33678
H 17.07788 -4.43563 1.40746
H 18.61113 -2.97318 -0.61554
H 19.20325 -3.61036 0.96187
H 18.25352 -2.06093 0.85414
H 15.96638 -2.02857 6.57356
H 15.64634 -3.00029 5.10064
H 14.27301 -2.13302 5.89692
H 13.95581 2.97714 6.19725
H 15.68162 5.59897 9.15198
H 16.00585 6.53432 7.55701
H 17.08507 5.30884 8.26814

