%nproc=24
%mem=175gb
#p cam-b3lyp/Def2SVP td=(nstates=5)

TDDFT excited states in gaussian

0 1
Mg 15.75790 1.41791 1.20398
C 16.24076 4.04479 3.60094
C 15.94989 -0.78436 3.80162
C 15.78616 -0.93587 -0.92354
C 16.73632 3.67752 -1.26231
N 16.05781 1.71355 3.37536
C 16.16756 2.76044 4.17931
C 16.11999 2.41721 5.69241
C 16.60423 0.88843 5.60754
C 16.14738 0.56587 4.18631
C 18.11438 0.73106 5.67111
C 14.67158 2.52888 6.28540
C 14.59922 2.51005 7.81386
H 13.58447 3.32774 8.47275
N 15.36827 -0.51571 1.42276
C 15.47789 -1.24510 2.55291
C 15.09584 -2.61722 2.18484
C 14.91058 -2.67273 0.70927
C 15.37829 -1.35315 0.33505
C 14.86382 -3.69759 3.20091
C 14.40904 -3.74170 -0.21375
O 14.55681 -3.65811 -1.48418
C 13.82345 -4.93254 0.41909
N 16.39825 1.31012 -0.77103
C 16.24843 0.18109 -1.48572
C 16.52477 0.42209 -2.95062
C 16.65638 2.00815 -3.10774
C 16.51579 2.42173 -1.62633
C 17.77807 -0.25028 -3.51057
C 15.73550 2.69033 -4.15620
C 14.29301 2.59914 -3.71317
N 16.20162 3.53067 1.11785
C 16.61693 4.26968 -0.01152
C 16.90708 5.64292 0.44941
C 16.66059 5.60121 1.82999
C 16.26552 4.28910 2.20650
C 17.38272 6.71020 -0.36350
C 16.65501 6.36614 3.05618
O 16.81752 7.55196 3.34104
C 16.50497 5.36089 4.27821
C 15.44373 5.90161 5.19686
O 14.26092 5.97800 4.82038
O 15.95728 6.03450 6.43338
C 14.93928 6.55741 7.38315
H 16.22135 -1.56992 4.50738
H 15.70812 -1.68339 -1.71639
H 16.95203 4.46595 -1.98654
H 16.80202 2.98955 6.30970
H 16.07812 0.26691 6.32747
H 18.62032 1.68470 5.64389
H 18.38452 0.13472 4.80945
H 18.39518 0.13940 6.54713
H 14.12026 1.60698 6.05983
H 14.17273 3.40147 5.91075
H 15.58127 2.67085 8.27501
H 14.31338 1.50559 8.13537
H 15.23693 -3.40600 4.19044
H 15.49226 -4.54739 2.91325
H 13.82248 -4.02459 3.23771
H 14.56061 -5.39398 1.07187
H 13.44181 -5.54214 -0.40226
H 12.99160 -4.61581 1.05810
H 15.70042 0.07562 -3.56178
H 17.66814 2.30391 -3.42191
H 17.56997 -0.91375 -4.37114
H 18.25525 -0.80212 -2.71163
H 18.56702 0.43136 -3.82382
H 15.79973 2.16768 -5.11373
H 15.98566 3.72998 -4.33937
H 13.99501 1.60068 -4.04690
H 13.69511 3.37079 -4.19392
H 14.21512 2.61818 -2.61991
H 16.81970 7.59031 -0.08258
H 17.26847 6.48525 -1.42185
H 18.43273 6.73365 -0.05985
H 17.47661 5.29481 4.76925
H 15.36118 7.45805 7.83979
H 14.70034 5.71470 8.05880
H 14.01668 6.94399 6.96624

