%nproc=24
%mem=175gb
#p cam-b3lyp/Def2SVP td=(nstates=5)

TDDFT excited states in gaussian

0 1
Mg 0.00000 0.00000 0.00000
C -0.21700 -2.21800 2.80100
C -1.25500 2.44200 2.02600
C -0.24500 1.85000 -2.56400
C 0.14600 -2.82400 -2.03700
N -0.61700 -0.00900 2.12600
C -0.59400 -0.90800 3.10500
C -0.93600 -0.30900 4.50200
C -1.77300 0.96400 4.03200
C -1.15500 1.16800 2.66000
C -3.26300 0.68500 3.86300
C 0.34500 0.11000 5.29900
C 0.12400 0.39700 6.78700
H 1.16800 0.03300 7.73300
N -0.18500 1.96100 -0.15200
C -0.70300 2.80000 0.77700
C -0.62000 4.15600 0.19300
C -0.18700 4.01500 -1.22500
C -0.21400 2.58300 -1.38000
C -0.88700 5.40600 0.97400
C 0.18100 5.01300 -2.27700
O 0.30300 4.69000 -3.50800
C 0.31000 6.41400 -1.83700
N -0.26500 -0.41300 -2.02900
C -0.27900 0.56900 -2.93700
C -0.19600 0.02400 -4.33200
C 0.12400 -1.53300 -4.18000
C 0.08600 -1.63200 -2.63500
C -1.45100 0.20500 -5.19700
C 1.37300 -2.07000 -4.92300
C 2.62600 -1.49000 -4.30600
N 0.15000 -2.14400 0.30300
C 0.17300 -3.13600 -0.68800
C 0.17300 -4.43800 0.00400
C 0.13300 -4.11100 1.35800
C 0.08300 -2.69500 1.50200
C 0.14900 -5.71500 -0.62300
C 0.09600 -4.62900 2.71600
O 0.20800 -5.74700 3.22100
C -0.25500 -3.42800 3.70100
C 0.71700 -3.48200 4.84800
O 1.93100 -3.25500 4.66900
O 0.03800 -3.55600 6.00300
C 0.94300 -3.58300 7.18300
H -1.85900 3.22000 2.49700
H -0.21800 2.45300 -3.47400
H 0.27600 -3.74700 -2.60500
H -1.55400 -0.94900 5.13200
H -1.58500 1.83100 4.66500
H -3.48400 -0.37700 3.96900
H -3.51100 1.02700 2.85800
H -3.85200 1.30100 4.54300
H 0.66900 1.09600 4.96600
H 1.13000 -0.63900 5.18900
H -0.84400 0.02600 7.12500
H 0.06200 1.47700 6.92100
H -1.34400 5.18600 1.93800
H -1.65100 5.96300 0.43200
H 0.00700 6.02000 1.08400
H -0.63500 6.74400 -1.40500
H 0.66500 6.97000 -2.70400
H 1.04800 6.46600 -1.03600
H 0.60800 0.50100 -4.89100
H -0.69200 -2.15600 -4.54700
H -1.26700 0.74000 -6.12900
H -2.20400 0.71400 -4.59600
H -1.96700 -0.72000 -5.45300
H 1.35600 -1.75900 -5.96700
H 1.45200 -3.15700 -4.90200
H 2.71400 -0.52200 -4.79800
H 3.48700 -2.12100 -4.52900
H 2.49500 -1.30300 -3.24000
H 0.86700 -6.33300 -0.08400
H 0.40400 -5.64200 -1.68000
H -0.89100 -5.99900 -0.46300
H -1.28300 -3.58100 4.02800
H 0.69800 -4.47800 7.75500
H 0.83300 -2.61900 7.68000
H 2.00000 -3.75400 6.97600
Mg 31.52589 2.84100 2.38739
C 32.23008 0.13331 0.13982
C 32.48254 4.96252 -0.10631
C 31.34735 5.22055 4.47863
C 31.72904 0.54249 4.99915
N 32.24293 2.47505 0.32725
C 32.41143 1.40717 -0.43798
C 32.71771 1.72426 -1.92633
C 33.32691 3.19810 -1.73775
C 32.61740 3.59215 -0.44392
C 34.82476 3.20191 -1.48134
C 31.42231 1.74708 -2.81144
C 31.67458 1.74368 -4.32078
H 30.74259 1.01940 -5.18060
N 31.39039 4.79939 2.09597
C 31.80861 5.49222 1.01599
C 31.50002 6.90258 1.29853
C 31.01592 7.00477 2.70207
C 31.25744 5.65237 3.16333
C 31.59793 7.98103 0.25892
C 30.44373 8.13622 3.50120
O 30.31232 8.06268 4.77405
C 30.12871 9.36740 2.76198
N 31.74516 2.92198 4.45323
C 31.56482 4.07388 5.12296
C 31.50154 3.83459 6.61263
C 31.43458 2.24665 6.79023
C 31.56646 1.82085 5.31149
C 32.67142 4.38847 7.42565
C 30.24946 1.68059 7.61953
C 28.94906 1.90751 6.88274
N 31.72352 0.69644 2.56012
C 31.81491 -0.05865 3.74990
C 32.05353 -1.46269 3.35723
C 32.10778 -1.42302 1.95581
C 31.93662 -0.08537 1.50759
C 32.23647 -2.55646 4.24960
C 32.28152 -2.20697 0.75418
O 32.37821 -3.40838 0.50717
C 32.49470 -1.21544 -0.46967
C 31.60029 -1.66453 -1.59256
O 30.36334 -1.61461 -1.47392
O 32.34554 -1.87203 -2.69343
C 31.50153 -2.30834 -3.83759
H 32.97482 5.70316 -0.73719
H 31.18144 5.98725 5.23898
H 31.70630 -0.24952 5.75073
H 33.45199 1.07462 -2.38740
H 33.02986 3.85530 -2.55090
H 35.21363 2.20303 -1.35038
H 34.96756 3.78460 -0.58072
H 35.34206 3.74545 -2.27715
H 30.93303 2.72382 -2.70493
H 30.76951 0.93631 -2.55235
H 32.70986 1.47633 -4.56505
H 31.56667 2.76537 -4.69295
H 32.13859 7.63449 -0.63047
H 32.23546 8.76887 0.67452
H 30.62646 8.41009 0.00431
H 31.02961 9.73992 2.28026
H 29.64753 10.02790 3.48592
H 29.42156 9.12350 1.96131
H 30.60710 4.27371 7.03720
H 32.32228 1.85698 7.30982
H 32.35625 5.08591 8.22461
H 33.35942 4.87419 6.74648
H 33.30324 3.63727 7.89649
H 30.16437 2.21249 8.57032
H 30.34810 0.62481 7.84886
H 28.69124 2.93706 7.14853
H 28.18799 1.20913 7.22491
H 29.10077 1.87535 5.79757
H 31.65805 -3.38088 3.85430
H 31.92627 -2.30087 5.26065
H 33.31880 -2.69097 4.17394
H 33.54929 -1.25663 -0.74481
H 31.91562 -3.25539 -4.19720
H 31.49703 -1.45907 -4.54644
H 30.47744 -2.59232 -3.62533

