%nproc=24
%mem=175gb
#p cam-b3lyp/Def2SVP td=(nstates=5)

TDDFT excited states in gaussian

0 1
Mg 0.00000 0.00000 0.00000
C -0.21700 -2.21800 2.80100
C -1.25500 2.44200 2.02600
C -0.24500 1.85000 -2.56400
C 0.14600 -2.82400 -2.03700
N -0.61700 -0.00900 2.12600
C -0.59400 -0.90800 3.10500
C -0.93600 -0.30900 4.50200
C -1.77300 0.96400 4.03200
C -1.15500 1.16800 2.66000
C -3.26300 0.68500 3.86300
C 0.34500 0.11000 5.29900
C 0.12400 0.39700 6.78700
H 1.16800 0.03300 7.73300
N -0.18500 1.96100 -0.15200
C -0.70300 2.80000 0.77700
C -0.62000 4.15600 0.19300
C -0.18700 4.01500 -1.22500
C -0.21400 2.58300 -1.38000
C -0.88700 5.40600 0.97400
C 0.18100 5.01300 -2.27700
O 0.30300 4.69000 -3.50800
C 0.31000 6.41400 -1.83700
N -0.26500 -0.41300 -2.02900
C -0.27900 0.56900 -2.93700
C -0.19600 0.02400 -4.33200
C 0.12400 -1.53300 -4.18000
C 0.08600 -1.63200 -2.63500
C -1.45100 0.20500 -5.19700
C 1.37300 -2.07000 -4.92300
C 2.62600 -1.49000 -4.30600
N 0.15000 -2.14400 0.30300
C 0.17300 -3.13600 -0.68800
C 0.17300 -4.43800 0.00400
C 0.13300 -4.11100 1.35800
C 0.08300 -2.69500 1.50200
C 0.14900 -5.71500 -0.62300
C 0.09600 -4.62900 2.71600
O 0.20800 -5.74700 3.22100
C -0.25500 -3.42800 3.70100
C 0.71700 -3.48200 4.84800
O 1.93100 -3.25500 4.66900
O 0.03800 -3.55600 6.00300
C 0.94300 -3.58300 7.18300
H -1.85900 3.22000 2.49700
H -0.21800 2.45300 -3.47400
H 0.27600 -3.74700 -2.60500
H -1.55400 -0.94900 5.13200
H -1.58500 1.83100 4.66500
H -3.48400 -0.37700 3.96900
H -3.51100 1.02700 2.85800
H -3.85200 1.30100 4.54300
H 0.66900 1.09600 4.96600
H 1.13000 -0.63900 5.18900
H -0.84400 0.02600 7.12500
H 0.06200 1.47700 6.92100
H -1.34400 5.18600 1.93800
H -1.65100 5.96300 0.43200
H 0.00700 6.02000 1.08400
H -0.63500 6.74400 -1.40500
H 0.66500 6.97000 -2.70400
H 1.04800 6.46600 -1.03600
H 0.60800 0.50100 -4.89100
H -0.69200 -2.15600 -4.54700
H -1.26700 0.74000 -6.12900
H -2.20400 0.71400 -4.59600
H -1.96700 -0.72000 -5.45300
H 1.35600 -1.75900 -5.96700
H 1.45200 -3.15700 -4.90200
H 2.71400 -0.52200 -4.79800
H 3.48700 -2.12100 -4.52900
H 2.49500 -1.30300 -3.24000
H 0.86700 -6.33300 -0.08400
H 0.40400 -5.64200 -1.68000
H -0.89100 -5.99900 -0.46300
H -1.28300 -3.58100 4.02800
H 0.69800 -4.47800 7.75500
H 0.83300 -2.61900 7.68000
H 2.00000 -3.75400 6.97600
Mg 10.51815 0.94134 0.80434
C 10.72308 -2.22348 -0.87523
C 9.57686 -0.77182 3.59964
C 9.89341 3.73022 2.18248
C 10.35267 2.44095 -2.33723
N 10.22434 -1.21705 1.18812
C 10.39153 -2.33110 0.49149
C 10.27086 -3.63508 1.32495
C 9.36397 -3.07090 2.52418
C 9.76731 -1.59904 2.46406
C 7.87275 -3.16914 2.24859
C 11.66130 -4.14232 1.84589
C 11.65872 -5.56822 2.40137
H 12.83903 -6.40089 2.18690
N 10.31410 1.40902 2.72221
C 9.94671 0.58523 3.72604
C 9.92539 1.41536 4.94036
C 10.14995 2.83212 4.54405
C 10.10618 2.71215 3.10052
C 9.78637 0.83741 6.31879
C 10.35564 4.08922 5.33374
O 10.29401 5.24628 4.78580
C 10.53854 3.92998 6.78380
N 9.96046 2.79515 0.04625
C 9.80360 3.85533 0.85824
C 9.67372 5.13451 0.06626
C 10.01966 4.74127 -1.44479
C 10.21102 3.21842 -1.27250
C 8.30387 5.81091 0.11498
C 11.14453 5.55322 -2.14342
C 12.47636 5.25473 -1.49340
N 10.71728 0.28552 -1.24463
C 10.58611 1.07357 -2.40904
C 10.69149 0.16135 -3.56627
C 10.85493 -1.10734 -2.98989
C 10.83140 -0.99643 -1.57333
C 10.58520 0.53800 -4.93483
C 11.03135 -2.51655 -3.25768
O 11.21135 -3.19258 -4.26977
C 10.82713 -3.31828 -1.90051
C 11.95943 -4.29921 -1.76562
O 13.12783 -3.89946 -1.61846
O 11.45435 -5.53715 -1.61474
C 12.53878 -6.54396 -1.46589
H 9.05680 -1.18763 4.46308
H 9.78319 4.73133 2.60570
H 10.40908 2.84369 -3.35078
H 9.76046 -4.44885 0.82391
H 9.65314 -3.50689 3.47689
H 7.67020 -3.49461 1.23904
H 7.47726 -2.17523 2.41221
H 7.39322 -3.81070 2.99342
H 11.92744 -3.58717 2.75458
H 12.40972 -4.05321 1.08263
H 10.74792 -6.11512 2.12881
H 11.62342 -5.51561 3.49224
H 9.47263 -0.21322 6.28471
H 8.94953 1.35531 6.79977
H 10.68353 0.97570 6.92597
H 9.67096 3.42688 7.20413
H 10.75993 4.92991 7.16197
H 11.39820 3.27328 6.95797
H 10.38598 5.87524 0.40848
H 9.15360 4.87597 -2.10935
H 8.34543 6.85529 0.47775
H 7.65178 5.21653 0.74111
H 7.76367 5.82855 -0.83005
H 10.97146 6.62495 -2.01850
H 11.21823 5.36091 -3.20858
H 12.48280 5.92194 -0.62629
H 13.29438 5.48348 -2.17351
H 12.50900 4.22548 -1.11761
H 11.36873 0.01230 -5.46419
H 10.67421 1.61526 -5.05878
H 9.57606 0.18119 -5.15751
H 9.85848 -3.81640 -1.95686
H 12.38001 -7.30132 -2.23976
H 12.49076 -6.88140 -0.41347
H 13.55131 -6.22619 -1.68554

