%nproc=24
%mem=175gb
#p cam-b3lyp/Def2SVP td=(nstates=5)

TDDFT excited states in gaussian

0 1
Mg 10.51766 0.95027 0.80551
C 9.98349 -1.25470 3.58612
C 9.55134 3.51028 2.84197
C 10.54397 2.84994 -1.73575
C 10.32899 -1.84432 -1.26822
N 9.87459 0.99590 2.92132
C 9.76955 0.10469 3.89551
C 9.49395 0.71301 5.29678
C 8.82299 2.09565 4.83096
C 9.47937 2.23586 3.45903
C 7.31938 1.99840 4.63336
C 10.81231 0.95994 6.11101
C 10.60367 1.26094 7.59682
H 11.58723 0.76048 8.55317
N 10.58549 2.92988 0.68255
C 10.17185 3.81750 1.61115
C 10.41737 5.14798 1.03347
C 10.85677 4.97289 -0.37756
C 10.65471 3.54728 -0.54160
C 10.30757 6.41455 1.83170
C 11.36160 5.93215 -1.41253
O 11.45928 5.60099 -2.64688
C 11.64974 7.29910 -0.95437
N 10.23637 0.59487 -1.22351
C 10.35271 1.58838 -2.12202
C 10.38254 1.04810 -3.53185
C 10.50584 -0.53924 -3.38111
C 10.43293 -0.65376 -1.84262
C 9.16930 1.38401 -4.39879
C 11.68776 -1.22649 -4.11828
C 12.99896 -0.81052 -3.49127
N 10.39836 -1.18880 1.08509
C 10.30226 -2.17632 0.08028
C 10.12954 -3.47558 0.76185
C 10.11393 -3.14847 2.12612
C 10.24591 -1.74225 2.28298
C 9.96362 -4.73564 0.12088
C 10.00515 -3.67189 3.46884
O 9.96217 -4.79862 3.96115
C 9.78886 -2.45586 4.46928
C 10.73176 -2.63398 5.62761
O 11.96194 -2.57017 5.45678
O 10.02692 -2.63287 6.77372
C 10.91961 -2.79569 7.95204
H 9.04901 4.34933 3.32422
H 10.65822 3.44756 -2.64309
H 10.36085 -2.77360 -1.84101
H 8.79889 0.14972 5.90782
H 9.11752 2.91607 5.48020
H 6.96590 0.98213 4.72487
H 7.12840 2.37720 3.63783
H 6.80442 2.67806 5.31835
H 11.26014 1.90862 5.78820
H 11.48833 0.13440 6.00100
H 9.58694 1.01696 7.92800
H 10.68254 2.34046 7.74660
H 9.80642 6.24249 2.79224
H 9.62838 7.07851 1.28607
H 11.26858 6.91786 1.95739
H 10.74925 7.73425 -0.52750
H 12.08406 7.81051 -1.81559
H 12.38843 7.24894 -0.14663
H 11.24678 1.41821 -4.06962
H 9.61938 -1.05621 -3.77707
H 9.43422 1.91070 -5.33500
H 8.48272 1.97752 -3.80981
H 8.55381 0.53182 -4.68188
H 11.72493 -0.90046 -5.16062
H 11.62356 -2.30947 -4.12169
H 13.20900 0.14943 -3.97238
H 13.77639 -1.53990 -3.70956
H 12.87973 -0.62222 -2.41797
H 10.58461 -5.44147 0.65631
H 10.23461 -4.68506 -0.93163
H 8.88992 -4.88613 0.26153
H 8.74495 -2.47291 4.78480
H 10.55297 -3.66055 8.51353
H 10.91151 -1.81840 8.47028
H 11.94743 -3.08455 7.76604

