%nproc=24
%mem=175gb
#p cam-b3lyp/Def2SVP td=(nstates=5)

TDDFT excited states in gaussian

0 1
Mg 7.88966 0.71144 0.60700
C 7.85039 -2.50342 2.20144
C 6.66899 2.00397 3.51800
C 7.48689 3.47240 -0.90373
C 8.00317 -0.96004 -2.44897
N 7.36854 -0.22914 2.53988
C 7.45358 -1.44866 3.04966
C 7.17037 -1.52989 4.57372
C 6.27480 -0.20528 4.72281
C 6.82364 0.59488 3.54332
C 4.79385 -0.45029 4.48596
C 8.48119 -1.43652 5.43107
C 8.31485 -1.81740 6.90382
H 9.41503 -2.50582 7.57326
N 7.65363 2.54617 1.32576
C 7.16548 2.88936 2.53622
C 7.17602 4.36000 2.57206
C 7.55558 4.85940 1.22253
C 7.55993 3.61858 0.47390
C 6.92371 5.14520 3.82634
C 7.85155 6.22892 0.69052
O 7.92719 6.46063 -0.56781
C 7.95769 7.30878 1.68255
N 7.54959 1.19102 -1.38716
C 7.46472 2.47252 -1.78524
C 7.49466 2.57901 -3.29128
C 7.86229 1.11454 -3.81830
C 7.89505 0.36133 -2.47035
C 6.19746 3.04628 -3.95106
C 9.08977 0.99390 -4.76245
C 10.35758 1.31527 -4.00433
N 8.10765 -1.33938 -0.03696
C 8.10322 -1.82174 -1.36413
C 8.16579 -3.29594 -1.29178
C 8.17917 -3.57215 0.08373
C 8.10813 -2.35689 0.81694
C 8.15391 -4.18464 -2.40362
C 8.22651 -4.61596 1.08219
O 8.38058 -5.83634 1.05646
C 7.88816 -3.97699 2.49768
C 8.91151 -4.46713 3.48512
O 10.10657 -4.14268 3.37044
O 8.28085 -5.05467 4.51829
C 9.25348 -5.54743 5.52973
H 6.07514 2.47490 4.30188
H 7.45865 4.40270 -1.47575
H 8.14095 -1.54927 -3.35809
H 6.60328 -2.39908 4.88468
H 6.47984 0.30679 5.65935
H 4.60208 -1.45484 4.13921
H 4.49200 0.27196 3.73877
H 4.22291 -0.20833 5.38697
H 8.76303 -0.38138 5.54055
H 9.26568 -2.02224 4.99273
H 7.36655 -2.33573 7.09096
H 8.23982 -0.90027 7.49310
H 6.50945 4.51216 4.62073
H 6.12292 5.85804 3.60170
H 7.80425 5.69712 4.16207
H 7.02804 7.37745 2.24246
H 8.26090 8.19380 1.11982
H 8.74036 7.04627 2.40306
H 8.26181 3.27177 -3.61481
H 7.04200 0.67455 -4.40429
H 6.32690 3.94909 -4.57735
H 5.46453 3.22358 -3.17522
H 5.70120 2.30244 -4.57205
H 9.01835 1.72475 -5.57172
H 9.18812 0.01521 -5.22013
H 10.39400 2.40831 -4.03647
H 11.22163 0.87683 -4.49954
H 10.27286 1.01908 -2.95231
H 8.90293 -4.94002 -2.20643
H 8.35392 -3.65893 -3.33496
H 7.12455 -4.54920 -2.35092
H 6.87822 -4.28994 2.76540
H 9.05285 -6.61369 5.67298
H 9.12887 -4.88876 6.40972
H 10.30066 -5.56481 5.25122

