%nproc=24
%mem=175gb
#p cam-b3lyp/Def2SVP td=(nstates=5)

TDDFT excited states in gaussian

0 1
Mg 13.14756 1.18675 0.99405
C 15.56975 -0.95974 2.54475
C 14.70250 3.80401 2.53245
C 10.77145 3.04638 0.01257
C 11.15139 -1.63212 0.53040
N 14.90051 1.28281 2.33949
C 15.77854 0.40978 2.80983
C 16.99024 1.04685 3.54160
C 16.31238 2.44115 3.96026
C 15.25950 2.54164 2.85844
C 15.59764 2.38449 5.30015
C 18.21609 1.26776 2.58739
C 19.53170 1.59700 3.29627
H 20.77539 1.08275 2.72947
N 13.04873 3.16149 0.82317
C 13.76837 4.07459 1.50848
C 13.30920 5.38855 1.03222
C 12.14444 5.17960 0.12978
C 11.92523 3.75813 0.30714
C 14.01250 6.66964 1.37513
C 11.35025 6.10816 -0.73811
O 10.23092 5.75577 -1.25363
C 11.87526 7.47294 -0.89046
N 11.15109 0.80913 0.55379
C 10.34746 1.78521 0.09622
C 9.04082 1.22313 -0.41089
C 9.23152 -0.36466 -0.42170
C 10.64592 -0.45385 0.19225
C 7.80045 1.58092 0.40756
C 8.96116 -1.09684 -1.76464
C 10.00862 -0.70960 -2.78358
N 13.37544 -0.94353 1.27340
C 12.40512 -1.94287 1.04126
C 12.98705 -3.22618 1.48501
C 14.25690 -2.87826 1.96968
C 14.44476 -1.47423 1.85596
C 12.33365 -4.49042 1.45518
C 15.47704 -3.37803 2.56145
O 15.92694 -4.49551 2.81159
C 16.33221 -2.14132 3.07684
C 17.74931 -2.32920 2.60880
O 18.02299 -2.30358 1.39594
O 18.57325 -2.29043 3.67181
C 19.99128 -2.46127 3.25729
H 14.97337 4.66441 3.14502
H 9.96037 3.62672 -0.43332
H 10.63024 -2.57045 0.32888
H 17.31912 0.51317 4.42523
H 17.02058 3.26239 3.88696
H 15.56258 1.38036 5.69592
H 14.59725 2.75363 5.11575
H 16.05441 3.08900 6.00113
H 18.06825 2.19811 2.02407
H 18.35474 0.42145 1.94307
H 19.48404 1.38756 4.37182
H 19.69548 2.67592 3.24031
H 14.73529 6.52663 2.18786
H 13.25985 7.34469 1.79666
H 14.46705 7.14677 0.50427
H 11.95548 7.94034 0.08809
H 11.22053 7.95854 -1.61668
H 12.89178 7.41359 -1.29517
H 8.84090 1.55995 -1.42069
H 8.55043 -0.86167 0.28466
H 7.01575 2.08556 -0.18713
H 8.10719 2.20285 1.23802
H 7.32183 0.74272 0.91109
H 7.99762 -0.78775 -2.17720
H 8.93953 -2.17744 -1.67071
H 9.62875 0.23652 -3.18064
H 10.08133 -1.46436 -3.56402
H 10.97020 -0.50179 -2.30002
H 13.05640 -5.20578 1.08586
H 11.44412 -4.46355 0.82926
H 12.08724 -4.60764 2.51386
H 16.25942 -2.12342 4.16494
H 20.39078 -3.30660 3.82605
H 20.46958 -1.47645 3.41580
H 20.18078 -2.78251 2.23977

