%nproc=24
%mem=175gb
#p cam-b3lyp/Def2SVP td=(nstates=5)

TDDFT excited states in gaussian

0 1
Mg 0.00000 0.00000 0.00000
C -0.21700 -2.21800 2.80100
C -1.25500 2.44200 2.02600
C -0.24500 1.85000 -2.56400
C 0.14600 -2.82400 -2.03700
N -0.61700 -0.00900 2.12600
C -0.59400 -0.90800 3.10500
C -0.93600 -0.30900 4.50200
C -1.77300 0.96400 4.03200
C -1.15500 1.16800 2.66000
C -3.26300 0.68500 3.86300
C 0.34500 0.11000 5.29900
C 0.12400 0.39700 6.78700
H 1.16800 0.03300 7.73300
N -0.18500 1.96100 -0.15200
C -0.70300 2.80000 0.77700
C -0.62000 4.15600 0.19300
C -0.18700 4.01500 -1.22500
C -0.21400 2.58300 -1.38000
C -0.88700 5.40600 0.97400
C 0.18100 5.01300 -2.27700
O 0.30300 4.69000 -3.50800
C 0.31000 6.41400 -1.83700
N -0.26500 -0.41300 -2.02900
C -0.27900 0.56900 -2.93700
C -0.19600 0.02400 -4.33200
C 0.12400 -1.53300 -4.18000
C 0.08600 -1.63200 -2.63500
C -1.45100 0.20500 -5.19700
C 1.37300 -2.07000 -4.92300
C 2.62600 -1.49000 -4.30600
N 0.15000 -2.14400 0.30300
C 0.17300 -3.13600 -0.68800
C 0.17300 -4.43800 0.00400
C 0.13300 -4.11100 1.35800
C 0.08300 -2.69500 1.50200
C 0.14900 -5.71500 -0.62300
C 0.09600 -4.62900 2.71600
O 0.20800 -5.74700 3.22100
C -0.25500 -3.42800 3.70100
C 0.71700 -3.48200 4.84800
O 1.93100 -3.25500 4.66900
O 0.03800 -3.55600 6.00300
C 0.94300 -3.58300 7.18300
H -1.85900 3.22000 2.49700
H -0.21800 2.45300 -3.47400
H 0.27600 -3.74700 -2.60500
H -1.55400 -0.94900 5.13200
H -1.58500 1.83100 4.66500
H -3.48400 -0.37700 3.96900
H -3.51100 1.02700 2.85800
H -3.85200 1.30100 4.54300
H 0.66900 1.09600 4.96600
H 1.13000 -0.63900 5.18900
H -0.84400 0.02600 7.12500
H 0.06200 1.47700 6.92100
H -1.34400 5.18600 1.93800
H -1.65100 5.96300 0.43200
H 0.00700 6.02000 1.08400
H -0.63500 6.74400 -1.40500
H 0.66500 6.97000 -2.70400
H 1.04800 6.46600 -1.03600
H 0.60800 0.50100 -4.89100
H -0.69200 -2.15600 -4.54700
H -1.26700 0.74000 -6.12900
H -2.20400 0.71400 -4.59600
H -1.96700 -0.72000 -5.45300
H 1.35600 -1.75900 -5.96700
H 1.45200 -3.15700 -4.90200
H 2.71400 -0.52200 -4.79800
H 3.48700 -2.12100 -4.52900
H 2.49500 -1.30300 -3.24000
H 0.86700 -6.33300 -0.08400
H 0.40400 -5.64200 -1.68000
H -0.89100 -5.99900 -0.46300
H -1.28300 -3.58100 4.02800
H 0.69800 -4.47800 7.75500
H 0.83300 -2.61900 7.68000
H 2.00000 -3.75400 6.97600
Mg 31.53886 2.84605 2.39979
C 31.13958 2.04343 5.87476
C 30.32102 5.94742 3.12987
C 31.45339 3.43725 -0.71639
C 31.62657 -0.57897 1.76168
N 30.85382 3.75832 4.29472
C 30.80575 3.37777 5.56248
C 30.45297 4.51217 6.56160
C 29.67673 5.48968 5.55126
C 30.34510 5.07034 4.24354
C 28.19076 5.18944 5.44589
C 31.72993 5.20057 7.15952
C 31.46820 6.10246 8.36776
H 32.47200 6.15570 9.42701
N 31.44167 4.57027 1.42193
C 30.93684 5.73631 1.87667
C 31.08019 6.69541 0.77044
C 31.55975 5.95840 -0.43020
C 31.48195 4.59331 0.04994
C 30.84857 8.16929 0.93619
C 32.00154 6.40698 -1.79028
O 32.15045 5.57874 -2.75706
C 32.16441 7.85549 -1.98205
N 31.32751 1.61652 0.73669
C 31.37676 2.12271 -0.50801
C 31.47910 1.02476 -1.53972
C 31.73306 -0.32001 -0.71227
C 31.64061 0.24437 0.72242
C 30.25866 0.84397 -2.44208
C 32.98269 -1.15815 -1.09775
C 34.24183 -0.40094 -0.74195
N 31.59525 1.04325 3.58924
C 31.60214 -0.28853 3.11978
C 31.52669 -1.16810 4.30430
C 31.45739 -0.27973 5.38803
C 31.46715 1.05897 4.91129
C 31.48006 -2.59059 4.28254
C 31.36748 -0.17009 6.82629
O 31.41036 -0.96708 7.76262
C 31.03017 1.33802 7.19804
C 31.96237 1.76476 8.29867
O 33.18582 1.85085 8.09284
O 31.23813 2.20775 9.34252
C 32.11863 2.65270 10.45542
H 29.74050 6.86722 3.20632
H 31.53414 3.58498 -1.79580
H 31.74775 -1.65883 1.65260
H 29.79637 4.21661 7.37110
H 29.88845 6.53303 5.77023
H 27.92265 4.28984 5.97972
H 27.98760 5.07695 4.38896
H 27.60723 6.05418 5.77459
H 32.10218 5.94642 6.44545
H 32.47523 4.47034 7.40838
H 30.46954 5.94323 8.79234
H 31.45276 7.14110 8.02863
H 30.34543 8.39322 1.88492
H 30.12633 8.46777 0.16864
H 31.76108 8.75588 0.81001
H 31.22238 8.35591 -1.77084
H 32.57042 7.97318 -2.98862
H 32.88908 8.22621 -1.24855
H 32.31915 1.19369 -2.20220
H 30.90117 -1.03077 -0.82457
H 30.49606 0.92825 -3.51939
H 29.51327 1.57512 -2.15861
H 29.72286 -0.09470 -2.31162
H 33.01217 -1.31913 -2.17820
H 33.01023 -2.13463 -0.62580
H 34.37926 0.26571 -1.59856
H 35.08211 -1.08390 -0.63451
H 34.08659 0.22713 0.14296
H 32.14805 -2.93592 5.06038
H 31.76593 -2.98291 3.30882
H 30.42040 -2.75428 4.49606
H 29.98558 1.37280 7.50981
H 31.81563 2.09316 11.34581
H 32.01813 3.75368 10.49399
H 33.17054 2.39935 10.39424

