%nproc=24
%mem=175gb
#p cam-b3lyp/Def2SVP td=(nstates=5)

TDDFT excited states in gaussian

0 1
Mg 31.52406 2.83781 2.40158
C 32.15609 5.41676 4.81584
C 31.56086 0.61451 4.98812
C 31.41762 0.49788 0.26130
C 32.65813 5.04402 -0.04632
N 31.82831 3.10284 4.57631
C 31.99864 4.13660 5.38666
C 31.92007 3.78928 6.89754
C 32.30773 2.23351 6.80711
C 31.84044 1.94764 5.38142
C 33.80456 1.98112 6.87879
C 30.47785 3.98882 7.48251
C 30.39484 3.96672 9.01038
H 29.42941 4.84324 9.66773
N 31.01223 0.93144 2.60736
C 31.06866 0.19080 3.73411
C 30.60341 -1.15266 3.35620
C 30.42430 -1.18882 1.87927
C 30.97641 0.10062 1.51513
C 30.29752 -2.22149 4.36489
C 29.86234 -2.21936 0.94739
O 30.02305 -2.13870 -0.32166
C 29.19905 -3.37422 1.57015
N 32.16876 2.70008 0.42985
C 31.95273 1.58641 -0.29194
C 32.25288 1.81706 -1.75382
C 32.48496 3.39248 -1.90139
C 32.36135 3.80647 -0.41858
C 33.46491 1.07006 -2.31001
C 31.61541 4.13663 -2.95153
C 30.16728 4.13411 -2.51760
N 32.10031 4.91888 2.32976
C 32.56835 5.63609 1.20698
C 32.94139 6.98596 1.67720
C 32.68409 6.95276 3.05604
C 32.20493 5.66618 3.42295
C 33.48830 8.02536 0.87305
C 32.71892 7.71021 4.28638
O 32.95389 8.88198 4.57875
C 32.49828 6.71013 5.50193
C 31.46740 7.31183 6.41722
O 30.29412 7.46442 6.03414
O 31.98050 7.40579 7.65749
C 30.99145 7.98682 8.60406
H 31.77794 -0.19019 5.69114
H 31.29770 -0.23917 -0.53610
H 32.92753 5.82103 -0.76490
H 32.63285 4.31439 7.52203
H 31.73907 1.64264 7.52045
H 34.36963 2.90116 6.85985
H 34.04208 1.37340 6.01548
H 34.04210 1.36847 7.75319
H 29.87107 3.10460 7.24858
H 30.03722 4.89298 7.10973
H 31.38215 4.06304 9.47825
H 30.04438 2.98060 9.32464
H 30.68200 -1.95904 5.35821
H 30.87308 -3.10766 4.07629
H 29.23747 -2.48251 4.39369
H 29.90162 -3.88449 2.22475
H 28.78500 -3.95438 0.74319
H 28.38477 -3.00908 2.20594
H 31.41223 1.52629 -2.37177
H 33.51527 3.62561 -2.20790
H 33.22091 0.42542 -3.17545
H 33.90142 0.48519 -1.51130
H 34.29712 1.70230 -2.61479
H 31.65266 3.61590 -3.91153
H 31.93160 5.15940 -3.12747
H 29.80919 3.15811 -2.85860
H 29.62213 4.94430 -2.99762
H 30.08387 4.15240 -1.42473
H 32.97999 8.93769 1.15546
H 33.36678 7.81348 -0.18720
H 34.53578 7.98114 1.18306
H 33.46074 6.58052 5.99836
H 31.46628 8.85678 9.06816
H 30.69576 7.15736 9.27362
H 30.09763 8.43282 8.18381

