%nproc=24
%mem=175gb
#p cam-b3lyp/Def2SVP td=(nstates=5)

TDDFT excited states in gaussian

0 1
Mg 0.00000 0.00000 0.00000
C -0.21700 -2.21800 2.80100
C -1.25500 2.44200 2.02600
C -0.24500 1.85000 -2.56400
C 0.14600 -2.82400 -2.03700
N -0.61700 -0.00900 2.12600
C -0.59400 -0.90800 3.10500
C -0.93600 -0.30900 4.50200
C -1.77300 0.96400 4.03200
C -1.15500 1.16800 2.66000
C -3.26300 0.68500 3.86300
C 0.34500 0.11000 5.29900
C 0.12400 0.39700 6.78700
H 1.16800 0.03300 7.73300
N -0.18500 1.96100 -0.15200
C -0.70300 2.80000 0.77700
C -0.62000 4.15600 0.19300
C -0.18700 4.01500 -1.22500
C -0.21400 2.58300 -1.38000
C -0.88700 5.40600 0.97400
C 0.18100 5.01300 -2.27700
O 0.30300 4.69000 -3.50800
C 0.31000 6.41400 -1.83700
N -0.26500 -0.41300 -2.02900
C -0.27900 0.56900 -2.93700
C -0.19600 0.02400 -4.33200
C 0.12400 -1.53300 -4.18000
C 0.08600 -1.63200 -2.63500
C -1.45100 0.20500 -5.19700
C 1.37300 -2.07000 -4.92300
C 2.62600 -1.49000 -4.30600
N 0.15000 -2.14400 0.30300
C 0.17300 -3.13600 -0.68800
C 0.17300 -4.43800 0.00400
C 0.13300 -4.11100 1.35800
C 0.08300 -2.69500 1.50200
C 0.14900 -5.71500 -0.62300
C 0.09600 -4.62900 2.71600
O 0.20800 -5.74700 3.22100
C -0.25500 -3.42800 3.70100
C 0.71700 -3.48200 4.84800
O 1.93100 -3.25500 4.66900
O 0.03800 -3.55600 6.00300
C 0.94300 -3.58300 7.18300
H -1.85900 3.22000 2.49700
H -0.21800 2.45300 -3.47400
H 0.27600 -3.74700 -2.60500
H -1.55400 -0.94900 5.13200
H -1.58500 1.83100 4.66500
H -3.48400 -0.37700 3.96900
H -3.51100 1.02700 2.85800
H -3.85200 1.30100 4.54300
H 0.66900 1.09600 4.96600
H 1.13000 -0.63900 5.18900
H -0.84400 0.02600 7.12500
H 0.06200 1.47700 6.92100
H -1.34400 5.18600 1.93800
H -1.65100 5.96300 0.43200
H 0.00700 6.02000 1.08400
H -0.63500 6.74400 -1.40500
H 0.66500 6.97000 -2.70400
H 1.04800 6.46600 -1.03600
H 0.60800 0.50100 -4.89100
H -0.69200 -2.15600 -4.54700
H -1.26700 0.74000 -6.12900
H -2.20400 0.71400 -4.59600
H -1.96700 -0.72000 -5.45300
H 1.35600 -1.75900 -5.96700
H 1.45200 -3.15700 -4.90200
H 2.71400 -0.52200 -4.79800
H 3.48700 -2.12100 -4.52900
H 2.49500 -1.30300 -3.24000
H 0.86700 -6.33300 -0.08400
H 0.40400 -5.64200 -1.68000
H -0.89100 -5.99900 -0.46300
H -1.28300 -3.58100 4.02800
H 0.69800 -4.47800 7.75500
H 0.83300 -2.61900 7.68000
H 2.00000 -3.75400 6.97600
Mg 7.87743 0.71654 0.60456
C 10.11041 1.33499 3.34507
C 5.62720 -0.43770 2.89340
C 6.06721 -0.25603 -1.81301
C 10.65223 0.83077 -1.50094
N 7.97231 0.52443 2.80600
C 8.84818 0.84898 3.74508
C 8.31376 0.71662 5.19644
C 7.15653 -0.36418 4.92895
C 6.86930 -0.05645 3.46080
C 7.64021 -1.80126 5.02999
C 7.72541 2.06502 5.74205
C 7.46961 2.09135 7.25057
H 7.68780 3.34223 7.97179
N 5.94883 0.25164 0.55016
C 5.18606 -0.17792 1.57726
C 3.84462 -0.40136 1.01622
C 3.91839 -0.22643 -0.45982
C 5.34990 -0.08757 -0.63758
C 2.63910 -0.66645 1.87055
C 2.87459 -0.20252 -1.53504
O 3.18493 -0.27529 -2.77649
C 1.47388 -0.18560 -1.08868
N 8.31880 0.13097 -1.34085
C 7.34023 -0.19365 -2.20396
C 7.87231 -0.31278 -3.61218
C 9.37233 0.23858 -3.55277
C 9.48239 0.50975 -2.03627
C 7.87112 -1.72087 -4.20687
C 9.74124 1.38233 -4.53684
C 8.99377 2.64306 -4.16638
N 9.97138 1.20505 0.81616
C 10.96291 1.16260 -0.18840
C 12.25413 1.46793 0.46117
C 11.92493 1.64560 1.81341
C 10.53029 1.44395 1.99727
C 13.52239 1.50242 -0.18417
C 12.44176 1.94742 3.12889
O 13.53526 2.29325 3.57429
C 11.30995 1.63536 4.20034
C 11.22464 2.80651 5.14037
O 10.84832 3.91907 4.73147
O 11.39065 2.37133 6.40268
C 11.30324 3.49513 7.37287
H 4.93982 -1.02897 3.49904
H 5.47179 -0.48358 -2.70024
H 11.54909 0.98183 -2.10550
H 9.02931 0.32629 5.91017
H 6.27982 -0.16339 5.53922
H 8.71200 -1.85820 5.14897
H 7.33593 -2.27954 4.10819
H 7.10753 -2.32290 5.83029
H 6.69754 2.18165 5.37513
H 8.35032 2.89234 5.46700
H 7.96301 1.25894 7.76690
H 6.40440 1.92126 7.42493
H 2.92231 -0.90241 2.90375
H 2.17937 -1.58813 1.49769
H 1.90373 0.13955 1.82310
H 1.27998 -1.06172 -0.47446
H 0.87876 -0.07919 -1.99774
H 1.32194 0.68898 -0.44632
H 7.29891 0.30155 -4.29550
H 10.10509 -0.54807 -3.78533
H 7.30581 -1.79371 -5.15513
H 7.46708 -2.40226 -3.46999
H 8.85658 -2.14307 -4.39615
H 9.42978 1.12377 -5.55188
H 10.80418 1.59676 -4.57092
H 8.01824 2.49996 -4.64068
H 9.50101 3.51991 -4.56373
H 8.82902 2.69928 -3.08409
H 14.03769 2.37765 0.18857
H 13.41698 1.53308 -1.26663
H 13.94253 0.55381 0.16063
H 11.59130 0.71629 4.71584
H 12.22621 3.48217 7.96078
H 10.35455 3.34330 7.92122
H 11.31998 4.50308 6.97512

