%nproc=24
%mem=175gb
#p cam-b3lyp/Def2SVP td=(nstates=5)

TDDFT excited states in gaussian

0 1
Mg 0.00000 0.00000 0.00000
C -0.21700 -2.21800 2.80100
C -1.25500 2.44200 2.02600
C -0.24500 1.85000 -2.56400
C 0.14600 -2.82400 -2.03700
N -0.61700 -0.00900 2.12600
C -0.59400 -0.90800 3.10500
C -0.93600 -0.30900 4.50200
C -1.77300 0.96400 4.03200
C -1.15500 1.16800 2.66000
C -3.26300 0.68500 3.86300
C 0.34500 0.11000 5.29900
C 0.12400 0.39700 6.78700
H 1.16800 0.03300 7.73300
N -0.18500 1.96100 -0.15200
C -0.70300 2.80000 0.77700
C -0.62000 4.15600 0.19300
C -0.18700 4.01500 -1.22500
C -0.21400 2.58300 -1.38000
C -0.88700 5.40600 0.97400
C 0.18100 5.01300 -2.27700
O 0.30300 4.69000 -3.50800
C 0.31000 6.41400 -1.83700
N -0.26500 -0.41300 -2.02900
C -0.27900 0.56900 -2.93700
C -0.19600 0.02400 -4.33200
C 0.12400 -1.53300 -4.18000
C 0.08600 -1.63200 -2.63500
C -1.45100 0.20500 -5.19700
C 1.37300 -2.07000 -4.92300
C 2.62600 -1.49000 -4.30600
N 0.15000 -2.14400 0.30300
C 0.17300 -3.13600 -0.68800
C 0.17300 -4.43800 0.00400
C 0.13300 -4.11100 1.35800
C 0.08300 -2.69500 1.50200
C 0.14900 -5.71500 -0.62300
C 0.09600 -4.62900 2.71600
O 0.20800 -5.74700 3.22100
C -0.25500 -3.42800 3.70100
C 0.71700 -3.48200 4.84800
O 1.93100 -3.25500 4.66900
O 0.03800 -3.55600 6.00300
C 0.94300 -3.58300 7.18300
H -1.85900 3.22000 2.49700
H -0.21800 2.45300 -3.47400
H 0.27600 -3.74700 -2.60500
H -1.55400 -0.94900 5.13200
H -1.58500 1.83100 4.66500
H -3.48400 -0.37700 3.96900
H -3.51100 1.02700 2.85800
H -3.85200 1.30100 4.54300
H 0.66900 1.09600 4.96600
H 1.13000 -0.63900 5.18900
H -0.84400 0.02600 7.12500
H 0.06200 1.47700 6.92100
H -1.34400 5.18600 1.93800
H -1.65100 5.96300 0.43200
H 0.00700 6.02000 1.08400
H -0.63500 6.74400 -1.40500
H 0.66500 6.97000 -2.70400
H 1.04800 6.46600 -1.03600
H 0.60800 0.50100 -4.89100
H -0.69200 -2.15600 -4.54700
H -1.26700 0.74000 -6.12900
H -2.20400 0.71400 -4.59600
H -1.96700 -0.72000 -5.45300
H 1.35600 -1.75900 -5.96700
H 1.45200 -3.15700 -4.90200
H 2.71400 -0.52200 -4.79800
H 3.48700 -2.12100 -4.52900
H 2.49500 -1.30300 -3.24000
H 0.86700 -6.33300 -0.08400
H 0.40400 -5.64200 -1.68000
H -0.89100 -5.99900 -0.46300
H -1.28300 -3.58100 4.02800
H 0.69800 -4.47800 7.75500
H 0.83300 -2.61900 7.68000
H 2.00000 -3.75400 6.97600
Mg 8.92532 0.80774 0.68331
C 6.72857 -1.95802 0.04775
C 6.73444 2.75552 -1.06049
C 11.04876 3.16037 0.83680
C 11.43248 -1.51770 1.35576
N 7.01335 0.34358 -0.32723
C 6.24654 -0.72941 -0.44987
C 4.85171 -0.45529 -1.07347
C 5.20798 0.88777 -1.87853
C 6.36925 1.38615 -1.02077
C 5.72837 0.62778 -3.28243
C 3.75072 -0.19791 0.01446
C 2.31215 -0.22973 -0.50636
H 1.26973 -0.77159 0.36095
N 8.69677 2.76265 0.42903
C 7.73916 3.38303 -0.29166
C 8.02080 4.82261 -0.18004
C 9.31801 4.99320 0.52908
C 9.75791 3.61473 0.60916
C 7.06169 5.87810 -0.64854
C 10.04853 6.19880 1.03806
O 11.27306 6.13621 1.41148
C 9.31717 7.47357 0.99866
N 10.99859 0.82803 0.83658
C 11.67293 1.98679 0.93891
C 13.11583 1.74690 1.31426
C 13.21179 0.19321 1.68088
C 11.76401 -0.23386 1.35384
C 14.14768 2.07999 0.23689
C 13.79100 -0.16608 3.07662
C 12.84346 0.29160 4.16201
N 9.04052 -1.34010 0.88718
C 10.19469 -2.11175 1.14514
C 9.79254 -3.53177 1.07999
C 8.42640 -3.48777 0.76342
C 8.01130 -2.13624 0.62010
C 10.65655 -4.64979 1.25210
C 7.24347 -4.27762 0.50744
O 6.96759 -5.47488 0.57211
C 6.12027 -3.32591 -0.09176
C 4.83755 -3.60065 0.64422
O 4.73478 -3.33710 1.85524
O 3.88018 -3.92357 -0.24435
C 2.58611 -4.19429 0.43676
H 6.23354 3.40544 -1.77853
H 11.79860 3.93639 1.00709
H 12.13394 -2.30130 1.65003
H 4.50272 -1.21821 -1.75898
H 4.38309 1.59501 -1.85161
H 5.88482 -0.42489 -3.46560
H 6.66365 1.16738 -3.35410
H 5.06156 1.08098 -4.02157
H 3.80878 0.84801 0.34220
H 3.85449 -0.88509 0.83155
H 2.24619 -0.67094 -1.50833
H 1.96987 0.79890 -0.64340
H 6.26974 5.45178 -1.27660
H 7.61741 6.53843 -1.32307
H 6.65549 6.47253 0.17263
H 9.02060 7.68827 -0.02526
H 9.97032 8.20037 1.48554
H 8.39331 7.36491 1.57770
H 13.39143 2.33083 2.18384
H 13.86511 -0.35056 0.98280
H 14.90584 2.81344 0.57054
H 13.62366 2.44528 -0.63632
H 14.69211 1.22535 -0.16110
H 14.73266 0.36271 3.24342
H 13.98978 -1.22519 3.20217
H 13.10175 1.34754 4.28594
H 13.01423 -0.26689 5.08014
H 11.80261 0.24463 3.82132
H 10.12984 -5.35666 1.87933
H 11.60554 -4.35444 1.69477
H 10.77033 -4.97014 0.21301
H 6.03691 -3.54748 -1.15644
H 2.26705 -5.19528 0.13031
H 1.92417 -3.35000 0.16701
H 2.59947 -4.29757 1.51547

