%nproc=24
%mem=175gb
#p cam-b3lyp/Def2SVP td=(nstates=5)

TDDFT excited states in gaussian

0 1
Mg 0.00000 0.00000 0.00000
C -0.21700 -2.21800 2.80100
C -1.25500 2.44200 2.02600
C -0.24500 1.85000 -2.56400
C 0.14600 -2.82400 -2.03700
N -0.61700 -0.00900 2.12600
C -0.59400 -0.90800 3.10500
C -0.93600 -0.30900 4.50200
C -1.77300 0.96400 4.03200
C -1.15500 1.16800 2.66000
C -3.26300 0.68500 3.86300
C 0.34500 0.11000 5.29900
C 0.12400 0.39700 6.78700
H 1.16800 0.03300 7.73300
N -0.18500 1.96100 -0.15200
C -0.70300 2.80000 0.77700
C -0.62000 4.15600 0.19300
C -0.18700 4.01500 -1.22500
C -0.21400 2.58300 -1.38000
C -0.88700 5.40600 0.97400
C 0.18100 5.01300 -2.27700
O 0.30300 4.69000 -3.50800
C 0.31000 6.41400 -1.83700
N -0.26500 -0.41300 -2.02900
C -0.27900 0.56900 -2.93700
C -0.19600 0.02400 -4.33200
C 0.12400 -1.53300 -4.18000
C 0.08600 -1.63200 -2.63500
C -1.45100 0.20500 -5.19700
C 1.37300 -2.07000 -4.92300
C 2.62600 -1.49000 -4.30600
N 0.15000 -2.14400 0.30300
C 0.17300 -3.13600 -0.68800
C 0.17300 -4.43800 0.00400
C 0.13300 -4.11100 1.35800
C 0.08300 -2.69500 1.50200
C 0.14900 -5.71500 -0.62300
C 0.09600 -4.62900 2.71600
O 0.20800 -5.74700 3.22100
C -0.25500 -3.42800 3.70100
C 0.71700 -3.48200 4.84800
O 1.93100 -3.25500 4.66900
O 0.03800 -3.55600 6.00300
C 0.94300 -3.58300 7.18300
H -1.85900 3.22000 2.49700
H -0.21800 2.45300 -3.47400
H 0.27600 -3.74700 -2.60500
H -1.55400 -0.94900 5.13200
H -1.58500 1.83100 4.66500
H -3.48400 -0.37700 3.96900
H -3.51100 1.02700 2.85800
H -3.85200 1.30100 4.54300
H 0.66900 1.09600 4.96600
H 1.13000 -0.63900 5.18900
H -0.84400 0.02600 7.12500
H 0.06200 1.47700 6.92100
H -1.34400 5.18600 1.93800
H -1.65100 5.96300 0.43200
H 0.00700 6.02000 1.08400
H -0.63500 6.74400 -1.40500
H 0.66500 6.97000 -2.70400
H 1.04800 6.46600 -1.03600
H 0.60800 0.50100 -4.89100
H -0.69200 -2.15600 -4.54700
H -1.26700 0.74000 -6.12900
H -2.20400 0.71400 -4.59600
H -1.96700 -0.72000 -5.45300
H 1.35600 -1.75900 -5.96700
H 1.45200 -3.15700 -4.90200
H 2.71400 -0.52200 -4.79800
H 3.48700 -2.12100 -4.52900
H 2.49500 -1.30300 -3.24000
H 0.86700 -6.33300 -0.08400
H 0.40400 -5.64200 -1.68000
H -0.89100 -5.99900 -0.46300
H -1.28300 -3.58100 4.02800
H 0.69800 -4.47800 7.75500
H 0.83300 -2.61900 7.68000
H 2.00000 -3.75400 6.97600
Mg 15.77276 1.42162 1.20575
C 15.70874 -1.68618 2.99922
C 14.54247 2.90059 4.02242
C 15.39205 4.08374 -0.47817
C 15.89484 -0.43958 -1.73818
N 15.23632 0.60709 3.19095
C 15.31249 -0.57827 3.77701
C 15.02047 -0.56201 5.30148
C 14.13068 0.77347 5.36164
C 14.68998 1.49520 4.13732
C 12.64986 0.52086 5.13208
C 16.32699 -0.42085 6.15886
C 16.15063 -0.70741 7.65169
H 17.24367 -1.35735 8.36955
N 15.54188 3.29906 1.80615
C 15.04877 3.72008 2.98973
C 15.06641 5.18998 2.93295
C 15.45589 5.60161 1.55688
C 15.45821 4.31609 0.88791
C 14.81108 6.05380 4.13380
C 15.76158 6.93352 0.94142
O 15.84531 7.08514 -0.32855
C 15.86760 8.07323 1.86407
N 15.44609 1.77617 -0.81661
C 15.36979 3.03043 -1.29509
C 15.40857 3.04168 -2.80464
C 15.77182 1.54524 -3.23625
C 15.79341 0.87830 -1.84336
C 14.11735 3.47243 -3.50008
C 17.00388 1.35971 -4.16376
C 18.26907 1.72236 -3.42001
N 15.98412 -0.66667 0.69349
C 15.98462 -1.23166 -0.60067
C 16.03948 -2.69865 -0.43526
C 16.04389 -2.88771 0.95496
C 15.97484 -1.62836 1.60976
C 16.02933 -3.65558 -1.48898
C 16.08054 -3.86675 2.01743
O 16.22869 -5.08703 2.06951
C 15.73755 -3.13832 3.38789
C 16.75299 -3.56999 4.41017
O 17.95027 -3.25891 4.28224
O 16.11373 -4.08836 5.47461
C 17.07831 -4.52089 6.52071
H 13.94665 3.42270 4.77161
H 15.37158 4.97628 -1.10780
H 16.03471 -1.08553 -2.60758
H 14.44737 -1.40726 5.66326
H 14.33309 1.34259 6.26525
H 12.45502 -0.50265 4.84816
H 12.35573 1.19598 4.33914
H 12.07516 0.82173 6.01272
H 16.61345 0.63778 6.20333
H 17.11096 -1.03663 5.76286
H 15.19875 -1.20855 7.86557
H 16.07690 0.24536 8.18160
H 14.38930 5.47398 4.96405
H 14.01509 6.75475 3.86006
H 15.69248 6.62171 4.43922
H 14.93522 8.18133 2.41312
H 16.17830 8.91964 1.24849
H 16.64497 7.85303 2.60422
H 16.18091 3.70914 -3.16669
H 14.95261 1.07299 -3.79812
H 14.25473 4.33338 -4.18122
H 13.38104 3.70163 -2.74123
H 13.62085 2.69324 -4.07587
H 16.94056 2.03844 -5.01785
H 17.09990 0.35368 -4.55832
H 18.31108 2.81102 -3.52071
H 19.13365 1.24962 -3.88159
H 18.17707 1.49342 -2.35194
H 16.77348 -4.40047 -1.24025
H 16.23707 -3.19051 -2.45040
H 14.99789 -4.01134 -1.41942
H 14.72461 -3.42912 3.66889
H 16.87160 -5.57507 6.72965
H 16.95212 -3.80752 7.35673
H 18.12691 -4.56060 6.24995

