%nproc=24
%mem=175gb
#p cam-b3lyp/Def2SVP td=(nstates=5)

TDDFT excited states in gaussian

0 1
Mg 13.14486 1.18953 1.00333
C 12.79414 -0.04748 4.35383
C 11.90845 4.16189 2.13070
C 13.01702 2.16674 -2.01265
C 13.25521 -2.12707 -0.06141
N 12.47442 1.84935 3.00518
C 12.44483 1.31203 4.21545
C 12.09398 2.30820 5.35304
C 11.29714 3.39690 4.48204
C 11.95355 3.15211 3.12489
C 9.81273 3.09705 4.35568
C 13.37185 2.92907 6.01908
C 13.11657 3.66924 7.33389
H 14.13242 3.59924 8.38061
N 13.02078 3.02187 0.25120
C 12.51113 4.11628 0.85437
C 12.63280 5.20822 -0.12391
C 13.10451 4.63290 -1.41279
C 13.04450 3.21756 -1.10735
C 12.39016 6.64713 0.22837
C 13.52607 5.25335 -2.71030
O 13.67076 4.55474 -3.77512
C 13.67384 6.71607 -2.72010
N 12.92457 0.17664 -0.79886
C 12.95450 0.83572 -1.97046
C 13.05423 -0.12276 -3.13311
C 13.32991 -1.55818 -2.48414
C 13.24959 -1.17955 -0.98895
C 11.82477 -0.20124 -4.03791
C 14.58222 -2.32837 -2.98534
C 15.83877 -1.60899 -2.55065
N 13.23135 -0.74778 1.95591
C 13.24441 -2.00986 1.32261
C 13.19087 -3.03205 2.38783
C 13.12664 -2.28767 3.57538
C 13.11889 -0.89964 3.27073
C 13.15655 -4.44093 2.18784
C 13.05292 -2.36058 5.01689
O 13.11399 -3.26843 5.84503
C 12.70675 -0.91468 5.57896
C 13.64820 -0.62009 6.71448
O 14.86830 -0.49627 6.50801
O 12.93257 -0.31925 7.81345
C 13.82231 -0.00867 8.96398
H 11.32078 5.05879 2.32845
H 13.08359 2.44977 -3.06572
H 13.38462 -3.18336 -0.30673
H 11.44972 1.90653 6.12593
H 11.50223 4.40659 4.82822
H 9.55897 2.13479 4.77497
H 9.59799 3.11620 3.29523
H 9.22554 3.90759 4.79677
H 13.72895 3.76252 5.40055
H 14.12648 2.18104 6.16611
H 12.12449 3.44767 7.74575
H 13.08792 4.74204 7.12828
H 11.89640 6.74488 1.20307
H 11.65621 7.03227 -0.48776
H 13.29588 7.25426 0.16720
H 12.73000 7.17629 -2.43753
H 14.06676 6.96349 -3.70816
H 14.40390 6.99909 -1.95360
H 13.88480 0.13669 -3.77805
H 12.50305 -2.25769 -2.67602
H 12.04855 0.02019 -5.09855
H 11.07638 0.48080 -3.65676
H 11.29888 -1.15431 -4.02081
H 14.60023 -2.35198 -4.07771
H 14.62400 -3.35607 -2.64028
H 15.96008 -0.83860 -3.31803
H 16.68627 -2.29137 -2.53897
H 15.68855 -1.09872 -1.59215
H 13.83679 -4.87440 2.90886
H 13.43425 -4.70482 1.16950
H 12.10100 -4.64102 2.39041
H 11.66568 -0.93008 5.90381
H 13.53490 -0.67875 9.78012
H 13.71254 1.07765 9.14179
H 14.87561 -0.24151 8.86015

