%nproc=24
%mem=175gb
#p cam-b3lyp/Def2SVP td=(nstates=5)

TDDFT excited states in gaussian

0 1
Mg 10.51743 0.95073 0.80545
C 10.13961 -1.26809 3.60065
C 9.40408 3.45611 2.83477
C 10.40905 2.83423 -1.74565
C 10.49264 -1.86160 -1.25267
N 9.88537 0.96751 2.92499
C 9.84241 0.07685 3.90439
C 9.53742 0.67436 5.30422
C 8.77803 2.00948 4.83553
C 9.41612 2.18311 3.45880
C 7.28237 1.81678 4.64788
C 10.84244 1.00821 6.10887
C 10.62412 1.30368 7.59439
H 11.64290 0.87136 8.54711
N 10.45985 2.92998 0.67190
C 9.99670 3.79494 1.59851
C 10.15459 5.13501 1.01247
C 10.59573 4.98011 -0.40037
C 10.48279 3.54374 -0.55582
C 9.97006 6.39656 1.80485
C 11.03304 5.96349 -1.44341
O 11.14401 5.63232 -2.67663
C 11.23732 7.34837 -0.99410
N 10.24700 0.56715 -1.21991
C 10.29526 1.56103 -2.12423
C 10.35063 1.01592 -3.53142
C 10.57445 -0.55967 -3.37331
C 10.51805 -0.67006 -1.83382
C 9.11352 1.27008 -4.39244
C 11.79287 -1.17529 -4.11435
C 13.07900 -0.67424 -3.49774
N 10.53463 -1.19004 1.09676
C 10.49487 -2.18718 0.09765
C 10.40830 -3.49094 0.78696
C 10.38026 -3.15794 2.14961
C 10.42443 -1.74535 2.29840
C 10.31818 -4.76246 0.15353
C 10.31262 -3.67974 3.49565
O 10.34354 -4.80421 3.99400
C 10.02619 -2.47421 4.49117
C 10.98531 -2.58628 5.64445
O 12.20800 -2.44618 5.46557
O 10.28863 -2.62317 6.79495
C 11.19678 -2.72303 7.96845
H 8.85284 4.26455 3.31584
H 10.48008 3.43284 -2.65675
H 10.57951 -2.79019 -1.82087
H 8.88282 0.07186 5.92250
H 9.02422 2.85037 5.47868
H 6.99408 0.78080 4.74683
H 7.06202 2.17731 3.65164
H 6.72975 2.46647 5.33260
H 11.22777 1.98137 5.77839
H 11.56841 0.22622 5.99886
H 9.62674 0.99808 7.93321
H 10.63580 2.38684 7.73814
H 9.48646 6.19863 2.76940
H 9.24720 7.01348 1.26010
H 10.89823 6.96000 1.92192
H 10.31379 7.72838 -0.56383
H 11.63347 7.88131 -1.86065
H 11.98250 7.34922 -0.19077
H 11.18666 1.43667 -4.07651
H 9.71994 -1.13354 -3.76103
H 9.33920 1.80720 -5.33299
H 8.39448 1.82248 -3.80221
H 8.55120 0.37931 -4.66727
H 11.80325 -0.85333 -5.15857
H 11.79691 -2.26017 -4.11180
H 13.22537 0.29435 -3.98509
H 13.89948 -1.35447 -3.71716
H 12.95455 -0.48788 -2.42469
H 10.98553 -5.42488 0.68866
H 10.57919 -4.70075 -0.90091
H 9.25693 -4.97939 0.30169
H 8.98733 -2.55514 4.81333
H 10.88863 -3.60612 8.53668
H 11.13029 -1.74533 8.48171
H 12.23962 -2.94770 7.77748

