%nproc=24
%mem=175gb
#p cam-b3lyp/Def2SVP td=(nstates=5)

TDDFT excited states in gaussian

0 1
Mg 0.00000 0.00000 0.00000
C -0.21700 -2.21800 2.80100
C -1.25500 2.44200 2.02600
C -0.24500 1.85000 -2.56400
C 0.14600 -2.82400 -2.03700
N -0.61700 -0.00900 2.12600
C -0.59400 -0.90800 3.10500
C -0.93600 -0.30900 4.50200
C -1.77300 0.96400 4.03200
C -1.15500 1.16800 2.66000
C -3.26300 0.68500 3.86300
C 0.34500 0.11000 5.29900
C 0.12400 0.39700 6.78700
H 1.16800 0.03300 7.73300
N -0.18500 1.96100 -0.15200
C -0.70300 2.80000 0.77700
C -0.62000 4.15600 0.19300
C -0.18700 4.01500 -1.22500
C -0.21400 2.58300 -1.38000
C -0.88700 5.40600 0.97400
C 0.18100 5.01300 -2.27700
O 0.30300 4.69000 -3.50800
C 0.31000 6.41400 -1.83700
N -0.26500 -0.41300 -2.02900
C -0.27900 0.56900 -2.93700
C -0.19600 0.02400 -4.33200
C 0.12400 -1.53300 -4.18000
C 0.08600 -1.63200 -2.63500
C -1.45100 0.20500 -5.19700
C 1.37300 -2.07000 -4.92300
C 2.62600 -1.49000 -4.30600
N 0.15000 -2.14400 0.30300
C 0.17300 -3.13600 -0.68800
C 0.17300 -4.43800 0.00400
C 0.13300 -4.11100 1.35800
C 0.08300 -2.69500 1.50200
C 0.14900 -5.71500 -0.62300
C 0.09600 -4.62900 2.71600
O 0.20800 -5.74700 3.22100
C -0.25500 -3.42800 3.70100
C 0.71700 -3.48200 4.84800
O 1.93100 -3.25500 4.66900
O 0.03800 -3.55600 6.00300
C 0.94300 -3.58300 7.18300
H -1.85900 3.22000 2.49700
H -0.21800 2.45300 -3.47400
H 0.27600 -3.74700 -2.60500
H -1.55400 -0.94900 5.13200
H -1.58500 1.83100 4.66500
H -3.48400 -0.37700 3.96900
H -3.51100 1.02700 2.85800
H -3.85200 1.30100 4.54300
H 0.66900 1.09600 4.96600
H 1.13000 -0.63900 5.18900
H -0.84400 0.02600 7.12500
H 0.06200 1.47700 6.92100
H -1.34400 5.18600 1.93800
H -1.65100 5.96300 0.43200
H 0.00700 6.02000 1.08400
H -0.63500 6.74400 -1.40500
H 0.66500 6.97000 -2.70400
H 1.04800 6.46600 -1.03600
H 0.60800 0.50100 -4.89100
H -0.69200 -2.15600 -4.54700
H -1.26700 0.74000 -6.12900
H -2.20400 0.71400 -4.59600
H -1.96700 -0.72000 -5.45300
H 1.35600 -1.75900 -5.96700
H 1.45200 -3.15700 -4.90200
H 2.71400 -0.52200 -4.79800
H 3.48700 -2.12100 -4.52900
H 2.49500 -1.30300 -3.24000
H 0.86700 -6.33300 -0.08400
H 0.40400 -5.64200 -1.68000
H -0.89100 -5.99900 -0.46300
H -1.28300 -3.58100 4.02800
H 0.69800 -4.47800 7.75500
H 0.83300 -2.61900 7.68000
H 2.00000 -3.75400 6.97600
Mg 31.52915 2.83188 2.40259
C 29.78392 5.01465 4.65397
C 33.54092 1.98241 5.02286
C 33.36255 1.24904 0.35304
C 30.15898 4.67068 -0.22174
N 31.55874 3.48161 4.51665
C 30.80842 4.26857 5.27300
C 31.12505 4.19420 6.79082
C 32.64396 3.68179 6.69478
C 32.57739 2.97155 5.34430
C 33.65484 4.81169 6.59088
C 30.21583 3.15859 7.54104
C 30.25550 3.25538 9.06774
H 29.02920 2.98809 9.81421
N 32.88025 1.41302 2.71879
C 33.58513 1.19802 3.84936
C 34.45954 0.04943 3.56600
C 34.33229 -0.29229 2.12317
C 33.51812 0.81392 1.66110
C 35.24501 -0.65777 4.63198
C 34.86692 -1.42025 1.29367
O 34.82992 -1.39053 0.01282
C 35.51918 -2.51802 2.02232
N 31.90392 3.06958 0.37149
C 32.70140 2.21212 -0.28935
C 32.60319 2.41607 -1.78239
C 31.38633 3.43109 -1.99822
C 31.03335 3.72039 -0.52271
C 33.85498 2.97088 -2.46178
C 30.25032 2.97476 -2.95421
C 29.50259 1.80916 -2.34785
N 30.07005 4.41326 2.20692
C 29.66343 5.05627 1.01726
C 28.73859 6.14167 1.40325
C 28.68885 6.06895 2.80351
C 29.53942 5.02579 3.25940
C 28.11462 7.05928 0.51174
C 28.11843 6.64433 4.00028
O 27.26354 7.49848 4.23120
C 28.89973 6.06931 5.25938
C 27.88234 5.63110 6.27692
O 27.11436 4.68327 6.03518
O 28.12779 6.25613 7.44288
C 27.15142 5.84568 8.48693
H 34.36724 1.81871 5.71516
H 33.88898 0.66362 -0.40436
H 29.61354 5.22596 -0.98779
H 31.08525 5.14414 7.31024
H 32.87282 2.97379 7.48707
H 33.17496 5.77264 6.47944
H 34.25862 4.58719 5.72134
H 34.33673 4.78722 7.44573
H 30.63250 2.15221 7.40569
H 29.20074 3.22614 7.20093
H 30.71769 4.18941 9.40967
H 30.91775 2.47377 9.44791
H 35.26908 -0.07987 5.56410
H 36.28832 -0.67970 4.29897
H 34.90479 -1.68247 4.79602
H 36.35176 -2.12356 2.59997
H 35.75547 -3.27023 1.26719
H 34.80508 -2.93287 2.74244
H 32.37704 1.48420 -2.28594
H 31.72258 4.38363 -2.43348
H 34.23444 2.32257 -3.27405
H 34.61570 3.11928 -1.70691
H 33.74831 3.96961 -2.88174
H 30.67008 2.61722 -3.89767
H 29.54474 3.76323 -3.19392
H 30.12435 0.95012 -2.61721
H 28.50704 1.72656 -2.77922
H 29.48935 1.87635 -1.25379
H 27.08458 7.15080 0.82976
H 28.18440 6.72106 -0.52001
H 28.72099 7.95066 0.69341
H 29.54122 6.86572 5.63858
H 26.68661 6.76063 8.86706
H 27.72523 5.23473 9.20890
H 26.28174 5.28393 8.16671

