%nproc=24
%mem=175gb
#p cam-b3lyp/Def2SVP td=(nstates=5)

TDDFT excited states in gaussian

0 1
Mg 7.89251 0.71378 0.59602
C 10.13220 -1.41751 2.41825
C 9.20413 3.33417 2.34181
C 5.63136 2.55254 -0.65840
C 6.01140 -2.12598 -0.14080
N 9.46141 0.81812 2.15163
C 10.28617 -0.04837 2.72024
C 11.38720 0.59654 3.60420
C 10.64200 1.97700 3.94753
C 9.73418 2.07575 2.72328
C 9.76587 1.89598 5.18655
C 12.71964 0.84427 2.81347
C 13.93110 1.18302 3.68488
H 15.24337 0.69163 3.27383
N 7.78716 2.68881 0.43258
C 8.40187 3.60370 1.21130
C 7.98695 4.91667 0.69350
C 6.94766 4.70233 -0.34988
C 6.72864 3.27620 -0.21473
C 8.62303 6.20308 1.13393
C 6.25509 5.62987 -1.30184
O 5.21445 5.26842 -1.95701
C 6.77515 7.00310 -1.37432
N 5.97267 0.31464 -0.09479
C 5.21861 1.28501 -0.64042
C 3.99416 0.71133 -1.31272
C 4.20778 -0.87359 -1.31438
C 5.53522 -0.95083 -0.52866
C 2.65591 1.04352 -0.65308
C 4.11855 -1.59432 -2.68742
C 5.27972 -1.18193 -3.56321
N 8.11453 -1.41626 0.88182
C 7.19561 -2.42574 0.52040
C 7.73592 -3.70607 1.02165
C 8.92983 -3.34675 1.66506
C 9.11001 -1.93919 1.58895
C 7.10988 -4.97845 0.89823
C 10.07331 -3.83685 2.40055
O 10.50452 -4.95098 2.69470
C 10.83906 -2.59472 3.03073
C 12.30622 -2.75858 2.74247
O 12.72937 -2.71587 1.57383
O 12.98978 -2.72071 3.90078
C 14.45091 -2.86811 3.66589
H 9.38355 4.19122 2.99155
H 4.87420 3.12699 -1.19710
H 5.53333 -3.06884 -0.41490
H 11.61047 0.05748 4.51708
H 11.34179 2.80831 3.97136
H 9.69608 0.88714 5.56538
H 8.79121 2.25385 4.88155
H 10.12087 2.59865 5.94586
H 12.63005 1.77878 2.24478
H 12.95025 0.00707 2.18374
H 13.75205 0.96103 4.74394
H 14.08489 2.26457 3.66002
H 9.24025 6.06065 2.02956
H 7.81374 6.86337 1.46398
H 9.17615 6.69584 0.33149
H 6.72528 7.46062 -0.38911
H 6.20961 7.48802 -2.17238
H 7.83513 6.96173 -1.64881
H 3.91750 1.05666 -2.33643
H 3.45083 -1.38739 -0.70375
H 1.94468 1.54430 -1.33678
H 2.84706 1.66020 0.21509
H 2.13019 0.19351 -0.22145
H 3.20992 -1.29346 -3.21472
H 4.10104 -2.67609 -2.60707
H 4.93890 -0.23657 -3.99592
H 5.46065 -1.92695 -4.33538
H 6.16998 -0.96678 -2.96089
H 7.88354 -5.68002 0.61584
H 6.30552 -4.95642 0.16591
H 6.73444 -5.11068 1.91648
H 10.63021 -2.58987 4.10122
H 14.78823 -3.71435 4.27235
H 14.89120 -1.87887 3.89238
H 14.77111 -3.17549 2.67724

