%nproc=24
%mem=175gb
#p cam-b3lyp/Def2SVP td=(nstates=5)

TDDFT excited states in gaussian

0 1
Mg 31.52777 2.83254 2.40241
C 30.17876 5.27215 4.66239
C 33.29235 1.58325 5.04062
C 33.07190 0.96269 0.35625
C 30.57890 4.93299 -0.21167
N 31.63692 3.43512 4.52779
C 31.03272 4.33821 5.28523
C 31.29973 4.18418 6.80659
C 32.69718 3.39699 6.72698
C 32.52528 2.73111 5.36326
C 33.90389 4.31824 6.65996
C 30.19777 3.32727 7.52311
C 30.22472 3.39324 9.05173
H 28.95555 3.35051 9.77273
N 32.58227 1.18081 2.71612
C 33.21184 0.82122 3.85437
C 33.86075 -0.46704 3.56549
C 33.70019 -0.75828 2.11493
C 33.11723 0.48761 1.65886
C 34.47842 -1.32423 4.63184
C 34.03007 -1.95472 1.27474
O 34.02461 -1.90043 -0.00583
C 34.45034 -3.16569 1.99475
N 31.98052 3.02437 0.38237
C 32.61594 2.04183 -0.28003
C 32.58723 2.28174 -1.77068
C 31.58684 3.51022 -1.98892
C 31.26530 3.83973 -0.51467
C 33.93404 2.60111 -2.41913
C 30.40451 3.28900 -2.97170
C 29.43962 2.27613 -2.39859
N 30.39531 4.66247 2.21025
C 30.14008 5.38720 1.02547
C 29.42777 6.62143 1.41498
C 29.33763 6.53951 2.81272
C 29.96829 5.34879 3.26432
C 29.00471 7.65245 0.52947
C 28.86171 7.19477 4.00973
O 28.17780 8.19094 4.24132
C 29.49627 6.46544 5.27140
C 28.39485 6.21176 6.26388
O 27.46766 5.42859 5.99264
O 28.73009 6.76298 7.44462
C 27.67363 6.52847 8.46478
H 34.05947 1.25744 5.74366
H 33.49405 0.29960 -0.40242
H 30.16253 5.59165 -0.97684
H 31.42854 5.11724 7.34194
H 32.77349 2.64745 7.51039
H 33.61504 5.35372 6.55745
H 34.47190 3.99668 5.79682
H 34.55206 4.15402 7.52554
H 30.42089 2.26256 7.37704
H 29.22029 3.58912 7.16730
H 30.84704 4.21888 9.41777
H 30.72099 2.49584 9.42910
H 34.59203 -0.77441 5.57428
H 35.50548 -1.53702 4.31601
H 33.94889 -2.26901 4.77207
H 35.33055 -2.94287 2.59312
H 34.55623 -3.93811 1.23053
H 33.65702 -3.44918 2.69538
H 32.20032 1.41617 -2.29430
H 32.10430 4.38871 -2.40163
H 34.20114 1.90463 -3.23623
H 34.69402 2.59326 -1.64913
H 34.02489 3.60794 -2.82314
H 30.76832 2.87239 -3.91416
H 29.86420 4.19929 -3.20925
H 29.89443 1.31949 -2.67261
H 28.45495 2.38813 -2.84796
H 29.41760 2.32910 -1.30389
H 28.00404 7.93131 0.83177
H 29.03020 7.32180 -0.50677
H 29.76380 8.41140 0.73696
H 30.26813 7.12172 5.67527
H 27.38125 7.50897 8.85314
H 28.10829 5.81045 9.18538
H 26.72052 6.14469 8.12019

