%nproc=24
%mem=175gb
#p cam-b3lyp/Def2SVP td=(nstates=5)

TDDFT excited states in gaussian

0 1
Mg 7.88962 0.71192 0.60692
C 7.82560 -2.39588 2.40039
C 6.65933 2.19089 3.42359
C 7.50891 3.37404 -1.07700
C 8.01170 -1.14928 -2.33702
N 7.35318 -0.10261 2.59212
C 7.42935 -1.28797 3.17817
C 7.13733 -1.27171 4.70265
C 6.24754 0.06377 4.76281
C 6.80685 0.78550 3.53849
C 4.76672 -0.18884 4.53325
C 8.44385 -1.13055 5.56003
C 8.26749 -1.41712 7.05286
H 9.36053 -2.06705 7.77072
N 7.65874 2.58936 1.20732
C 7.16563 3.01037 2.39090
C 7.18327 4.48028 2.33412
C 7.57275 4.89191 0.95805
C 7.57507 3.60639 0.28908
C 6.92794 5.34410 3.53497
C 7.87844 6.22382 0.34259
O 7.96217 6.37544 -0.92739
C 7.98446 7.36353 1.26524
N 7.56295 1.06647 -1.41544
C 7.48665 2.32073 -1.89392
C 7.52543 2.33198 -3.40348
C 7.88868 0.83554 -3.83508
C 7.91027 0.16860 -2.44219
C 6.23422 2.76273 -4.09891
C 9.12074 0.65001 -4.76259
C 10.38593 1.01266 -4.01884
N 8.10099 -1.37637 0.09466
C 8.10148 -1.94137 -1.19951
C 8.15634 -3.40835 -1.03409
C 8.16075 -3.59741 0.35613
C 8.09170 -2.33806 1.01093
C 8.14619 -4.36528 -2.08781
C 8.19740 -4.57645 1.41860
O 8.34555 -5.79673 1.47067
C 7.85441 -3.84802 2.78906
C 8.86985 -4.27969 3.81134
O 10.06713 -3.96861 3.68341
O 8.23059 -4.79806 4.87577
C 9.19517 -5.23059 5.92188
H 6.06351 2.71300 4.17278
H 7.48844 4.26658 -1.70664
H 8.15157 -1.79524 -3.20641
H 6.56423 -2.11696 5.06442
H 6.44995 0.63288 5.66642
H 4.57189 -1.21235 4.24933
H 4.47259 0.48628 3.74031
H 4.19202 0.11203 5.41389
H 8.73031 -0.07192 5.60449
H 9.22782 -1.74633 5.16402
H 7.31561 -1.91825 7.26674
H 8.19376 -0.46434 7.58277
H 6.50616 4.76428 4.36522
H 6.13195 6.04505 3.26123
H 7.80934 5.91201 3.84039
H 7.05208 7.47163 1.81429
H 8.29516 8.20994 0.64966
H 8.76183 7.14333 2.00539
H 8.29777 2.99944 -3.76552
H 7.06947 0.36329 -4.39695
H 6.37159 3.62368 -4.78005
H 5.49790 2.99193 -3.34006
H 5.73771 1.98353 -4.67471
H 9.05742 1.32874 -5.61668
H 9.21676 -0.35602 -5.15715
H 10.42794 2.10132 -4.11955
H 11.25051 0.53991 -4.48042
H 10.29393 0.78372 -2.95077
H 8.89034 -5.11017 -1.83909
H 8.35393 -3.90021 -3.04923
H 7.11475 -4.72105 -2.01825
H 6.84147 -4.13882 3.07006
H 8.98846 -6.28477 6.13082
H 9.06898 -4.51722 6.75790
H 10.24377 -5.27031 5.65112

