%nproc=24
%mem=175gb
#p cam-b3lyp/Def2SVP td=(nstates=5)

TDDFT excited states in gaussian

0 1
Mg 7.87291 0.71247 0.59867
C 6.43247 -2.10817 -1.08897
C 6.67090 2.65333 -1.93566
C 9.50710 3.14336 1.81837
C 9.89036 -1.53465 2.33822
N 6.71562 0.22023 -1.22084
C 6.17198 -0.87693 -1.72585
C 5.23421 -0.63075 -2.93810
C 5.84743 0.76727 -3.43647
C 6.41932 1.26926 -2.11223
C 6.99373 0.60487 -4.42083
C 3.73207 -0.47932 -2.51072
C 2.72609 -0.54572 -3.66195
H 1.43194 -1.17742 -3.41984
N 7.67108 2.66639 0.31577
C 7.14041 3.28208 -0.76154
C 7.24171 4.72456 -0.49104
C 8.02476 4.91329 0.76033
C 8.45857 3.55285 1.00754
C 6.56092 5.76090 -1.33718
C 8.34260 6.12069 1.58940
O 9.23820 6.09145 2.50585
C 7.64090 7.36291 1.23444
N 9.61140 0.81433 1.73428
C 10.07849 1.99413 2.17906
C 11.17541 1.79735 3.19809
C 11.18182 0.23202 3.52559
C 10.09975 -0.23937 2.52944
C 12.57451 2.23145 2.76167
C 11.04055 -0.17538 5.01782
C 9.66113 0.18266 5.52221
N 8.01207 -1.43616 0.77780
C 8.94663 -2.16971 1.54107
C 8.71634 -3.60035 1.25356
C 7.67074 -3.59881 0.31804
C 7.29072 -2.26081 0.02676
C 9.46035 -4.68748 1.79275
C 6.80922 -4.42443 -0.49733
O 6.61285 -5.63426 -0.60454
C 6.05430 -3.49179 -1.53976
C 4.59612 -3.86044 -1.52181
O 3.90755 -3.66617 -0.50458
O 4.20622 -4.17692 -2.77008
C 2.76422 -4.53913 -2.80553
H 6.53655 3.31812 -2.78941
H 10.03187 3.94098 2.34930
H 10.41226 -2.30166 2.91441
H 5.30681 -1.37063 -3.72619
H 5.06807 1.43572 -3.79305
H 7.28542 -0.42885 -4.53257
H 7.81197 1.18748 -4.01823
H 6.73689 1.06733 -5.37817
H 3.55896 0.54928 -2.16903
H 3.47382 -1.20373 -1.76294
H 3.17789 -0.93561 -4.58217
H 2.42725 0.47295 -3.92083
H 6.19710 5.33461 -2.28021
H 7.32921 6.47951 -1.64246
H 5.77328 6.29281 -0.79925
H 7.85989 7.61856 0.20045
H 7.93208 8.09045 1.99456
H 6.56147 7.18381 1.29252
H 10.96153 2.34573 4.10729
H 12.12324 -0.24518 3.21601
H 13.03076 2.97830 3.43852
H 12.51258 2.61952 1.75365
H 13.29622 1.42349 2.65425
H 11.75047 0.38408 5.63197
H 11.22133 -1.23006 5.19660
H 9.76046 1.24074 5.78240
H 9.40476 -0.41582 6.39406
H 8.91743 0.10882 4.72027
H 8.74312 -5.44875 2.06944
H 10.05893 -4.37523 2.64595
H 10.07952 -4.94705 0.92990
H 6.50707 -3.65999 -2.51766
H 2.69596 -5.53533 -3.25343
H 2.26126 -3.71117 -3.33963
H 2.26411 -4.69879 -1.85746

