%nproc=24
%mem=175gb
#p cam-b3lyp/Def2SVP td=(nstates=5)

TDDFT excited states in gaussian

0 1
Mg 31.54087 2.84360 2.39982
C 32.13324 0.68700 5.20646
C 31.04677 5.37104 4.63645
C 30.57479 4.65929 -0.01625
C 30.95598 -0.01924 0.50041
N 31.60931 2.89804 4.60994
C 31.90521 2.03144 5.56690
C 32.03877 2.65622 6.98160
C 31.12908 3.96014 6.75548
C 31.29469 4.11477 5.24507
C 29.65735 3.72617 7.05314
C 33.51989 3.04204 7.32723
C 33.77210 3.36924 8.80069
H 35.05231 2.98606 9.38951
N 31.38241 4.81687 2.25954
C 31.20839 5.69319 3.27101
C 31.13153 7.02160 2.64366
C 31.10919 6.84218 1.16649
C 30.99785 5.40002 1.07778
C 31.16707 8.29773 3.43339
C 31.16435 7.80951 0.02307
O 30.89100 7.45033 -1.17656
C 31.45662 9.20981 0.36252
N 30.65759 2.40282 0.57010
C 30.38717 3.37459 -0.31898
C 30.01290 2.79587 -1.66263
C 30.32418 1.23071 -1.55806
C 30.75964 1.15762 -0.07805
C 28.56009 2.99795 -2.09263
C 31.26530 0.62675 -2.63613
C 32.66397 1.17450 -2.46560
N 31.71581 0.71188 2.70511
C 31.39411 -0.31069 1.78590
C 31.57004 -1.59848 2.48809
C 31.96280 -1.23219 3.78426
C 32.00758 0.18435 3.88877
C 31.32446 -2.88732 1.93608
C 32.33943 -1.72156 5.09092
O 32.56099 -2.83208 5.57195
C 32.34413 -0.49882 6.10644
C 33.62102 -0.55839 6.89924
O 34.71990 -0.39288 6.34097
O 33.32424 -0.58347 8.21136
C 34.55878 -0.63157 9.03925
H 30.65044 6.17754 5.25401
H 30.33615 5.23642 -0.91260
H 30.88813 -0.95937 -0.05114
H 31.63170 2.05355 7.78463
H 31.53919 4.82268 7.27432
H 29.44743 2.68625 7.25473
H 29.12292 4.05610 6.17190
H 29.32889 4.37910 7.86686
H 33.75078 4.01576 6.87635
H 34.19812 2.27557 7.00605
H 32.94251 3.04787 9.44214
H 33.79473 4.45562 8.91596
H 31.01875 8.11226 4.50437
H 30.29043 8.88287 3.13511
H 32.06675 8.88651 3.24214
H 30.70453 9.57774 1.05639
H 31.54244 9.73041 -0.59325
H 32.41670 9.24909 0.88912
H 30.62081 3.22320 -2.45064
H 29.40934 0.62652 -1.64666
H 28.46077 3.51668 -3.06480
H 28.04703 3.54718 -1.31440
H 27.96786 2.08705 -2.16137
H 30.93578 0.92258 -3.63516
H 31.30377 -0.45730 -2.61756
H 32.61889 2.13386 -2.98971
H 33.39417 0.50930 -2.92206
H 32.87853 1.38460 -1.41134
H 32.14682 -3.51954 2.24351
H 31.23754 -2.84569 0.85235
H 30.37140 -3.12642 2.41543
H 31.46294 -0.59709 6.74159
H 34.47326 -1.50742 9.68984
H 34.62710 0.35677 9.53146
H 35.49464 -0.83533 8.53221

