%nproc=24
%mem=175gb
#p cam-b3lyp/Def2SVP td=(nstates=5)

TDDFT excited states in gaussian

0 1
Mg 10.50262 0.94429 0.80482
C 10.83349 3.60953 3.18517
C 10.84825 -1.22717 3.41248
C 10.66627 -1.41476 -1.31072
C 11.32225 3.24730 -1.67914
N 10.79624 1.27019 2.97273
C 10.84469 2.32633 3.77058
C 10.82782 1.98915 5.28570
C 11.40677 0.49340 5.20564
C 10.96268 0.13491 3.78898
C 12.92418 0.43167 5.26052
C 9.37880 2.01279 5.88720
C 9.31686 1.99788 7.41615
H 8.25661 2.75376 8.07720
N 10.23673 -1.00877 1.03597
C 10.39875 -1.72357 2.16915
C 10.10161 -3.11902 1.81054
C 9.91143 -3.19421 0.33646
C 10.29296 -1.84992 -0.04746
C 9.94407 -4.20621 2.83358
C 9.47266 -4.29769 -0.57788
O 9.60732 -4.21198 -1.84963
C 8.96693 -5.51948 0.06473
N 11.13672 0.86607 -1.17360
C 11.05399 -0.27407 -1.88152
C 11.30590 -0.02426 -3.34935
C 11.33653 1.56604 -3.51544
C 11.17900 1.97813 -2.03532
C 12.59567 -0.61956 -3.91370
C 10.36833 2.18316 -4.56158
C 8.93709 2.00389 -4.10904
N 10.81201 3.08026 0.70505
C 11.17327 3.83768 -0.43068
C 11.37919 5.22898 0.02135
C 11.14402 5.17947 1.40364
C 10.83454 3.84720 1.78937
C 11.78189 6.31954 -0.80000
C 11.09762 5.94929 2.62591
O 11.18689 7.14454 2.90364
C 11.01840 4.94336 3.85400
C 9.93072 5.42134 4.77651
O 8.74323 5.42111 4.40709
O 10.44224 5.59308 6.00908
C 9.39902 6.05617 6.96253
H 11.17279 -1.99019 4.12054
H 10.63070 -2.17008 -2.09921
H 11.48360 4.04373 -2.40876
H 11.47614 2.60664 5.89574
H 10.92510 -0.15599 5.93204
H 13.36894 1.41507 5.22522
H 13.22618 -0.15125 4.40026
H 13.24686 -0.13632 6.13779
H 8.88524 1.05680 5.66983
H 8.82381 2.85020 5.51121
H 10.28958 2.22266 7.87029
H 9.09670 0.97922 7.74461
H 10.30397 -3.88627 3.81923
H 10.62302 -5.01638 2.54635
H 8.92561 -4.59784 2.87860
H 9.73554 -5.93004 0.71523
H 8.61953 -6.15640 -0.75106
H 8.12062 -5.25217 0.70732
H 10.50136 -0.42525 -3.95353
H 12.32578 1.92310 -3.83748
H 12.42461 -1.29955 -4.76953
H 13.11137 -1.13588 -3.11496
H 13.33829 0.10860 -4.23540
H 10.45961 1.66030 -5.51680
H 10.55148 3.23546 -4.75166
H 8.70052 0.98684 -4.43575
H 8.28897 2.73374 -4.58997
H 8.86466 2.02403 -3.01542
H 11.16629 7.16404 -0.52008
H 11.67572 6.08202 -1.85645
H 12.83013 6.41066 -0.50308
H 11.99517 4.94122 4.33925
H 9.76613 6.98407 7.41187
H 9.21760 5.20385 7.64399
H 8.45146 6.38166 6.54945

