%nproc=24
%mem=175gb
#p cam-b3lyp/Def2SVP td=(nstates=5)

TDDFT excited states in gaussian

0 1
Mg 0.00000 0.00000 0.00000
C -0.21700 -2.21800 2.80100
C -1.25500 2.44200 2.02600
C -0.24500 1.85000 -2.56400
C 0.14600 -2.82400 -2.03700
N -0.61700 -0.00900 2.12600
C -0.59400 -0.90800 3.10500
C -0.93600 -0.30900 4.50200
C -1.77300 0.96400 4.03200
C -1.15500 1.16800 2.66000
C -3.26300 0.68500 3.86300
C 0.34500 0.11000 5.29900
C 0.12400 0.39700 6.78700
H 1.16800 0.03300 7.73300
N -0.18500 1.96100 -0.15200
C -0.70300 2.80000 0.77700
C -0.62000 4.15600 0.19300
C -0.18700 4.01500 -1.22500
C -0.21400 2.58300 -1.38000
C -0.88700 5.40600 0.97400
C 0.18100 5.01300 -2.27700
O 0.30300 4.69000 -3.50800
C 0.31000 6.41400 -1.83700
N -0.26500 -0.41300 -2.02900
C -0.27900 0.56900 -2.93700
C -0.19600 0.02400 -4.33200
C 0.12400 -1.53300 -4.18000
C 0.08600 -1.63200 -2.63500
C -1.45100 0.20500 -5.19700
C 1.37300 -2.07000 -4.92300
C 2.62600 -1.49000 -4.30600
N 0.15000 -2.14400 0.30300
C 0.17300 -3.13600 -0.68800
C 0.17300 -4.43800 0.00400
C 0.13300 -4.11100 1.35800
C 0.08300 -2.69500 1.50200
C 0.14900 -5.71500 -0.62300
C 0.09600 -4.62900 2.71600
O 0.20800 -5.74700 3.22100
C -0.25500 -3.42800 3.70100
C 0.71700 -3.48200 4.84800
O 1.93100 -3.25500 4.66900
O 0.03800 -3.55600 6.00300
C 0.94300 -3.58300 7.18300
H -1.85900 3.22000 2.49700
H -0.21800 2.45300 -3.47400
H 0.27600 -3.74700 -2.60500
H -1.55400 -0.94900 5.13200
H -1.58500 1.83100 4.66500
H -3.48400 -0.37700 3.96900
H -3.51100 1.02700 2.85800
H -3.85200 1.30100 4.54300
H 0.66900 1.09600 4.96600
H 1.13000 -0.63900 5.18900
H -0.84400 0.02600 7.12500
H 0.06200 1.47700 6.92100
H -1.34400 5.18600 1.93800
H -1.65100 5.96300 0.43200
H 0.00700 6.02000 1.08400
H -0.63500 6.74400 -1.40500
H 0.66500 6.97000 -2.70400
H 1.04800 6.46600 -1.03600
H 0.60800 0.50100 -4.89100
H -0.69200 -2.15600 -4.54700
H -1.26700 0.74000 -6.12900
H -2.20400 0.71400 -4.59600
H -1.96700 -0.72000 -5.45300
H 1.35600 -1.75900 -5.96700
H 1.45200 -3.15700 -4.90200
H 2.71400 -0.52200 -4.79800
H 3.48700 -2.12100 -4.52900
H 2.49500 -1.30300 -3.24000
H 0.86700 -6.33300 -0.08400
H 0.40400 -5.64200 -1.68000
H -0.89100 -5.99900 -0.46300
H -1.28300 -3.58100 4.02800
H 0.69800 -4.47800 7.75500
H 0.83300 -2.61900 7.68000
H 2.00000 -3.75400 6.97600
Mg 31.52243 2.84172 2.39642
C 29.84434 0.02665 0.93407
C 30.03774 4.77605 0.01133
C 33.32882 5.25989 3.37460
C 33.71225 0.58187 3.89424
N 30.13955 2.34936 0.74189
C 29.52233 1.25554 0.32122
C 28.44321 1.50398 -0.76659
C 29.00752 2.88821 -1.35339
C 29.74767 3.39420 -0.11693
C 30.01899 2.69994 -2.47180
C 27.00872 1.68123 -0.15601
C 25.86543 1.61870 -1.17126
H 24.60363 1.00819 -0.76186
N 31.31261 4.79563 2.11935
C 30.65916 5.40887 1.11028
C 30.81272 6.85219 1.34991
C 31.74904 7.04121 2.49109
C 32.19236 5.67698 2.69708
C 30.04493 7.89036 0.58431
C 32.18438 8.25157 3.26032
O 33.18742 8.21789 4.05756
C 31.46020 9.50049 2.98233
N 33.39087 2.92890 3.30397
C 33.92567 4.10589 3.67357
C 35.13909 3.90273 4.54920
C 35.16579 2.34060 4.89068
C 33.96113 1.87570 4.04331
C 36.47800 4.31233 3.93606
C 35.20750 1.94929 6.39328
C 33.90715 2.33206 7.06257
N 31.65447 0.69307 2.58056
C 32.66761 -0.04683 3.22877
C 32.38412 -1.47660 2.98831
C 31.22951 -1.46860 2.19125
C 30.83371 -0.12800 1.93505
C 33.17543 -2.56934 3.44203
C 30.26162 -2.28920 1.49951
O 30.03733 -3.49699 1.43121
C 29.39428 -1.35547 0.54963
C 27.94512 -1.70269 0.75431
O 27.39228 -1.48892 1.84759
O 27.39751 -2.02514 -0.43166
C 25.95779 -2.36666 -0.28207
H 29.80615 5.43471 -0.82618
H 33.92660 6.05473 3.82667
H 34.29210 -0.18722 4.40896
H 28.40653 0.75577 -1.54929
H 28.19851 3.56455 -1.61688
H 30.28063 1.66109 -2.60772
H 30.88893 3.27433 -2.18143
H 29.65021 3.15711 -3.39447
H 26.89350 2.71539 0.19324
H 26.83676 0.96769 0.62624
H 26.19298 1.21368 -2.13647
H 25.55000 2.63914 -1.40195
H 29.56003 7.46060 -0.30089
H 30.77830 8.59483 0.17717
H 29.33814 8.43868 1.21078
H 31.55109 9.74324 1.92627
H 31.85408 10.23080 3.69183
H 30.39432 9.33766 3.17723
H 35.04828 4.46265 5.47188
H 36.05452 1.84688 4.47087
H 37.02544 5.05877 4.54205
H 36.29523 4.69180 2.93950
H 37.16975 3.49299 3.74801
H 35.99623 2.50409 6.90736
H 35.39529 0.89381 6.55970
H 34.05235 3.39097 7.29650
H 33.75429 1.74556 7.96628
H 33.06778 2.26154 6.36105
H 32.48856 -3.31748 3.81488
H 33.88043 -2.25785 4.20996
H 33.67794 -2.84595 2.51131
H 29.71850 -1.53939 -0.47537
H 25.82066 -3.36590 -0.70679
H 25.40281 -1.53650 -0.75808
H 25.57852 -2.51014 0.72293

