%nproc=24
%mem=175gb
#p cam-b3lyp/Def2SVP td=(nstates=5)

TDDFT excited states in gaussian

0 1
Mg 31.52544 2.84415 2.40109
C 33.59221 4.06480 5.06896
C 29.68396 1.22195 4.77005
C 29.96325 1.39360 0.05100
C 34.13808 3.59430 0.22001
N 31.71265 2.73494 4.60229
C 32.49995 3.28982 5.51147
C 32.04682 3.06377 6.97882
C 31.19015 1.72287 6.76209
C 30.80369 1.91387 5.29688
C 32.01893 0.45422 6.87598
C 31.15273 4.23613 7.51564
C 30.93102 4.23444 9.02977
H 30.84590 5.51732 9.72219
N 29.77297 1.91281 2.40695
C 29.16372 1.33191 3.46177
C 27.90859 0.76822 2.94113
C 27.90459 0.92029 1.46073
C 29.25209 1.40663 1.24206
C 26.82595 0.23223 3.83221
C 26.86488 0.65772 0.41371
O 27.15674 0.63448 -0.83413
C 25.51415 0.33636 0.89719
N 32.05686 2.33997 0.45539
C 31.17178 1.76131 -0.37510
C 31.68628 1.74433 -1.79475
C 33.00237 2.65285 -1.78564
C 33.07399 2.97945 -0.27779
C 32.02342 0.36628 -2.36369
C 33.05314 3.82830 -2.79975
C 32.02308 4.87196 -2.43212
N 33.43551 3.84329 2.54746
C 34.38442 4.02462 1.51752
C 35.57242 4.65725 2.12652
C 35.23853 4.78004 3.48370
C 33.94251 4.24221 3.70861
C 36.77780 4.99062 1.44680
C 35.69200 5.23267 4.77915
O 36.67407 5.85037 5.18868
C 34.69711 4.67478 5.88611
C 34.34275 5.81023 6.80681
O 33.69218 6.78395 6.38818
O 34.63919 5.46069 8.07185
C 34.29525 6.55050 9.02360
H 29.17893 0.49305 5.40452
H 29.42440 1.00368 -0.81565
H 34.95571 3.94911 -0.41107
H 32.85230 2.88113 7.67998
H 30.30442 1.71388 7.39199
H 33.07338 0.66865 6.96710
H 31.82374 -0.10687 5.97148
H 31.65052 -0.16406 7.69959
H 30.12059 4.08444 7.17445
H 31.54554 5.18603 7.20901
H 31.62740 3.56371 9.54758
H 29.94587 3.80891 9.23576
H 27.18125 0.09920 4.86151
H 26.60263 -0.78359 3.48853
H 25.91199 0.82852 3.79002
H 25.55811 -0.54535 1.53210
H 24.89184 0.26934 0.00269
H 25.16281 1.16089 1.52753
H 30.96323 2.17996 -2.47337
H 33.90294 2.06790 -2.02360
H 31.47383 0.13217 -3.29494
H 31.81802 -0.37621 -1.60405
H 33.07871 0.19811 -2.57175
H 32.79419 3.47592 -3.80121
H 34.02806 4.29958 -2.86626
H 31.10406 4.47921 -2.87736
H 32.28698 5.83758 -2.85872
H 31.87289 4.91156 -1.34699
H 37.06650 5.97529 1.78970
H 36.64478 4.96791 0.36719
H 37.42854 4.18500 1.79723
H 35.20977 3.86737 6.41034
H 35.20475 6.78182 9.58663
H 33.42643 6.18069 9.59991
H 34.05156 7.52100 8.60744

