%nproc=24
%mem=175gb
#p cam-b3lyp/Def2SVP td=(nstates=5)

TDDFT excited states in gaussian

0 1
Mg 0.00000 0.00000 0.00000
C -0.21700 -2.21800 2.80100
C -1.25500 2.44200 2.02600
C -0.24500 1.85000 -2.56400
C 0.14600 -2.82400 -2.03700
N -0.61700 -0.00900 2.12600
C -0.59400 -0.90800 3.10500
C -0.93600 -0.30900 4.50200
C -1.77300 0.96400 4.03200
C -1.15500 1.16800 2.66000
C -3.26300 0.68500 3.86300
C 0.34500 0.11000 5.29900
C 0.12400 0.39700 6.78700
H 1.16800 0.03300 7.73300
N -0.18500 1.96100 -0.15200
C -0.70300 2.80000 0.77700
C -0.62000 4.15600 0.19300
C -0.18700 4.01500 -1.22500
C -0.21400 2.58300 -1.38000
C -0.88700 5.40600 0.97400
C 0.18100 5.01300 -2.27700
O 0.30300 4.69000 -3.50800
C 0.31000 6.41400 -1.83700
N -0.26500 -0.41300 -2.02900
C -0.27900 0.56900 -2.93700
C -0.19600 0.02400 -4.33200
C 0.12400 -1.53300 -4.18000
C 0.08600 -1.63200 -2.63500
C -1.45100 0.20500 -5.19700
C 1.37300 -2.07000 -4.92300
C 2.62600 -1.49000 -4.30600
N 0.15000 -2.14400 0.30300
C 0.17300 -3.13600 -0.68800
C 0.17300 -4.43800 0.00400
C 0.13300 -4.11100 1.35800
C 0.08300 -2.69500 1.50200
C 0.14900 -5.71500 -0.62300
C 0.09600 -4.62900 2.71600
O 0.20800 -5.74700 3.22100
C -0.25500 -3.42800 3.70100
C 0.71700 -3.48200 4.84800
O 1.93100 -3.25500 4.66900
O 0.03800 -3.55600 6.00300
C 0.94300 -3.58300 7.18300
H -1.85900 3.22000 2.49700
H -0.21800 2.45300 -3.47400
H 0.27600 -3.74700 -2.60500
H -1.55400 -0.94900 5.13200
H -1.58500 1.83100 4.66500
H -3.48400 -0.37700 3.96900
H -3.51100 1.02700 2.85800
H -3.85200 1.30100 4.54300
H 0.66900 1.09600 4.96600
H 1.13000 -0.63900 5.18900
H -0.84400 0.02600 7.12500
H 0.06200 1.47700 6.92100
H -1.34400 5.18600 1.93800
H -1.65100 5.96300 0.43200
H 0.00700 6.02000 1.08400
H -0.63500 6.74400 -1.40500
H 0.66500 6.97000 -2.70400
H 1.04800 6.46600 -1.03600
H 0.60800 0.50100 -4.89100
H -0.69200 -2.15600 -4.54700
H -1.26700 0.74000 -6.12900
H -2.20400 0.71400 -4.59600
H -1.96700 -0.72000 -5.45300
H 1.35600 -1.75900 -5.96700
H 1.45200 -3.15700 -4.90200
H 2.71400 -0.52200 -4.79800
H 3.48700 -2.12100 -4.52900
H 2.49500 -1.30300 -3.24000
H 0.86700 -6.33300 -0.08400
H 0.40400 -5.64200 -1.68000
H -0.89100 -5.99900 -0.46300
H -1.28300 -3.58100 4.02800
H 0.69800 -4.47800 7.75500
H 0.83300 -2.61900 7.68000
H 2.00000 -3.75400 6.97600
Mg 7.89060 0.70387 0.60359
C 8.10490 -2.08549 -1.64422
C 7.02234 -1.51857 3.04111
C 7.25586 3.17398 2.49120
C 7.64875 2.76405 -2.19692
N 7.63123 -1.49258 0.57910
C 7.79977 -2.45316 -0.31713
C 7.71088 -3.89222 0.25799
C 6.81899 -3.57781 1.55589
C 7.20248 -2.11464 1.76739
C 5.32435 -3.64621 1.28999
C 9.11694 -4.46614 0.65252
C 9.14257 -5.97085 0.92988
H 10.32923 -6.72956 0.54429
N 7.71573 0.79969 2.57813
C 7.37721 -0.20372 3.41470
C 7.36757 0.38311 4.76367
C 7.56688 1.85248 4.63744
C 7.49826 2.00510 3.19796
C 7.26110 -0.44560 6.01080
C 7.77102 2.94198 5.64616
O 7.68472 4.18024 5.32664
C 7.98239 2.51614 7.03737
N 7.29570 2.65798 0.21645
C 7.14029 3.54415 1.21568
C 6.97976 4.94709 0.68054
C 7.30298 4.85022 -0.88271
C 7.51674 3.32534 -1.00290
C 5.60256 5.58045 0.87691
C 8.40451 5.79670 -1.43358
C 9.75167 5.40262 -0.87212
N 8.06055 0.44783 -1.53501
C 7.89815 1.43838 -2.52825
C 7.99392 0.76154 -3.83789
C 8.18392 -0.59007 -3.51302
C 8.18488 -0.74759 -2.10069
C 7.85787 1.38681 -5.10936
C 8.37327 -1.92091 -4.04378
O 8.54329 -2.39186 -5.16762
C 8.20406 -2.96643 -2.85860
C 9.35097 -3.93713 -2.92824
O 10.51671 -3.55363 -2.72673
O 8.86447 -5.18924 -3.00503
C 9.96411 -6.18874 -3.06510
H 6.52346 -2.09736 3.81892
H 7.14072 4.07589 3.09682
H 7.68152 3.35084 -3.11740
H 7.20177 -4.60540 -0.37916
H 7.13102 -4.18034 2.40498
H 5.10752 -3.77944 0.24052
H 4.91935 -2.70713 1.64375
H 4.86667 -4.42379 1.90824
H 9.39258 -4.08739 1.64515
H 9.85009 -4.22337 -0.09192
H 8.23394 -6.47121 0.57354
H 9.12655 -6.12464 2.01160
H 6.96013 -1.47597 5.78461
H 6.42669 -0.04062 6.59356
H 8.16738 -0.40958 6.61910
H 7.12909 1.92933 7.36903
H 8.19797 3.43062 7.59336
H 8.85334 1.85214 7.07152
H 7.68870 5.62157 1.14483
H 6.42329 5.09357 -1.49651
H 5.63751 6.53864 1.42894
H 4.96961 4.86878 1.39016
H 5.04500 5.76671 -0.03941
H 8.22019 6.82300 -1.10666
H 8.46117 5.80907 -2.51693
H 9.76550 5.89510 0.10480
H 10.55417 5.76800 -1.50972
H 9.80422 4.32175 -0.69716
H 8.63819 0.98241 -5.74028
H 7.93094 2.46945 -5.02987
H 6.84943 1.06220 -5.37944
H 7.24093 -3.46042 -2.99254
H 9.80083 -6.78969 -3.96503
H 9.93960 -6.71856 -2.09430
H 10.96835 -5.81932 -3.23679

