%nproc=24
%mem=175gb
#p cam-b3lyp/Def2SVP td=(nstates=5)

TDDFT excited states in gaussian

0 1
Mg 0.00000 0.00000 0.00000
C -0.21700 -2.21800 2.80100
C -1.25500 2.44200 2.02600
C -0.24500 1.85000 -2.56400
C 0.14600 -2.82400 -2.03700
N -0.61700 -0.00900 2.12600
C -0.59400 -0.90800 3.10500
C -0.93600 -0.30900 4.50200
C -1.77300 0.96400 4.03200
C -1.15500 1.16800 2.66000
C -3.26300 0.68500 3.86300
C 0.34500 0.11000 5.29900
C 0.12400 0.39700 6.78700
H 1.16800 0.03300 7.73300
N -0.18500 1.96100 -0.15200
C -0.70300 2.80000 0.77700
C -0.62000 4.15600 0.19300
C -0.18700 4.01500 -1.22500
C -0.21400 2.58300 -1.38000
C -0.88700 5.40600 0.97400
C 0.18100 5.01300 -2.27700
O 0.30300 4.69000 -3.50800
C 0.31000 6.41400 -1.83700
N -0.26500 -0.41300 -2.02900
C -0.27900 0.56900 -2.93700
C -0.19600 0.02400 -4.33200
C 0.12400 -1.53300 -4.18000
C 0.08600 -1.63200 -2.63500
C -1.45100 0.20500 -5.19700
C 1.37300 -2.07000 -4.92300
C 2.62600 -1.49000 -4.30600
N 0.15000 -2.14400 0.30300
C 0.17300 -3.13600 -0.68800
C 0.17300 -4.43800 0.00400
C 0.13300 -4.11100 1.35800
C 0.08300 -2.69500 1.50200
C 0.14900 -5.71500 -0.62300
C 0.09600 -4.62900 2.71600
O 0.20800 -5.74700 3.22100
C -0.25500 -3.42800 3.70100
C 0.71700 -3.48200 4.84800
O 1.93100 -3.25500 4.66900
O 0.03800 -3.55600 6.00300
C 0.94300 -3.58300 7.18300
H -1.85900 3.22000 2.49700
H -0.21800 2.45300 -3.47400
H 0.27600 -3.74700 -2.60500
H -1.55400 -0.94900 5.13200
H -1.58500 1.83100 4.66500
H -3.48400 -0.37700 3.96900
H -3.51100 1.02700 2.85800
H -3.85200 1.30100 4.54300
H 0.66900 1.09600 4.96600
H 1.13000 -0.63900 5.18900
H -0.84400 0.02600 7.12500
H 0.06200 1.47700 6.92100
H -1.34400 5.18600 1.93800
H -1.65100 5.96300 0.43200
H 0.00700 6.02000 1.08400
H -0.63500 6.74400 -1.40500
H 0.66500 6.97000 -2.70400
H 1.04800 6.46600 -1.03600
H 0.60800 0.50100 -4.89100
H -0.69200 -2.15600 -4.54700
H -1.26700 0.74000 -6.12900
H -2.20400 0.71400 -4.59600
H -1.96700 -0.72000 -5.45300
H 1.35600 -1.75900 -5.96700
H 1.45200 -3.15700 -4.90200
H 2.71400 -0.52200 -4.79800
H 3.48700 -2.12100 -4.52900
H 2.49500 -1.30300 -3.24000
H 0.86700 -6.33300 -0.08400
H 0.40400 -5.64200 -1.68000
H -0.89100 -5.99900 -0.46300
H -1.28300 -3.58100 4.02800
H 0.69800 -4.47800 7.75500
H 0.83300 -2.61900 7.68000
H 2.00000 -3.75400 6.97600
Mg 15.77312 1.41776 1.20559
C 15.88331 -2.16866 1.27300
C 14.65634 1.29508 4.42620
C 15.23612 4.54017 1.03353
C 15.78661 1.21431 -2.27351
N 15.36342 -0.27741 2.56604
C 15.50068 -1.59327 2.50262
C 15.28943 -2.32783 3.85367
C 14.37032 -1.23108 4.58255
C 14.84548 0.01724 3.84187
C 12.88635 -1.41233 4.30996
C 16.63546 -2.55504 4.62735
C 16.54571 -3.53375 5.80031
H 17.69142 -4.39602 6.07656
N 15.52658 2.75980 2.64667
C 15.08623 2.53402 3.90221
C 15.06338 3.84819 4.56296
C 15.36888 4.89024 3.54535
C 15.36855 4.08815 2.33840
C 14.85004 4.01287 6.03971
C 15.60754 6.36676 3.64095
O 15.62005 7.11555 2.60076
C 15.73316 6.92420 4.99556
N 15.33095 2.68709 -0.38049
C 15.19750 4.01136 -0.18966
C 15.15604 4.75068 -1.50574
C 15.53395 3.66693 -2.61941
C 15.64621 2.41311 -1.72458
C 13.81928 5.40090 -1.86166
C 16.71952 4.01068 -3.56224
C 18.01265 4.03003 -2.77940
N 16.01022 -0.15217 -0.25973
C 15.95662 -0.02264 -1.66488
C 16.05751 -1.38315 -2.23168
C 16.14030 -2.21843 -1.10743
C 16.07394 -1.43560 0.07674
C 16.01599 -1.71291 -3.61575
C 16.25806 -3.58532 -0.65304
O 16.43981 -4.67089 -1.20280
C 15.96963 -3.62504 0.90953
C 17.04842 -4.44681 1.56024
O 18.22893 -4.05568 1.55809
O 16.47981 -5.44398 2.26216
C 17.50909 -6.28043 2.93502
H 14.08790 1.36221 5.35424
H 15.15963 5.62352 0.91530
H 15.89669 1.07495 -3.35107
H 14.75799 -3.26912 3.78071
H 14.60570 -1.15904 5.64121
H 12.70290 -2.18024 3.57320
H 12.53357 -0.45358 3.95305
H 12.35159 -1.60111 5.24522
H 16.89681 -1.63661 5.16856
H 17.41282 -2.86535 3.95648
H 15.61957 -4.12084 5.77734
H 16.47589 -2.95915 6.72712
H 14.48770 3.08523 6.49970
H 14.02308 4.71993 6.16644
H 15.73161 4.40469 6.55154
H 14.82870 6.70947 5.55974
H 15.98919 7.97627 4.85604
H 16.55397 6.41202 5.50991
H 15.89089 5.54610 -1.52579
H 14.69845 3.48538 -3.31137
H 13.89844 6.48901 -2.04559
H 13.11856 5.20039 -1.06209
H 13.31301 4.97298 -2.72525
H 16.59382 5.01312 -3.97874
H 16.82013 3.32533 -4.39720
H 18.02153 5.03301 -2.34231
H 18.86335 3.88034 -3.44117
H 17.98317 3.31053 -1.95291
H 16.79100 -2.44884 -3.78385
H 16.16065 -0.83268 -4.23868
H 14.99908 -2.10707 -3.69191
H 14.98072 -4.06340 1.04908
H 17.34066 -7.31330 2.61487
H 17.40919 -6.06535 4.01554
H 18.54257 -6.13447 2.64334

