%nproc=24
%mem=175gb
#p cam-b3lyp/Def2SVP td=(nstates=5)

TDDFT excited states in gaussian

0 1
Mg 15.77332 1.41741 1.20533
C 13.63245 0.09497 3.76402
C 16.63604 3.87601 3.40661
C 17.31593 2.85928 -1.16296
C 13.91574 -0.41731 -1.10311
N 15.14827 1.82534 3.28744
C 14.37683 1.21943 4.17744
C 14.46630 1.80628 5.61172
C 14.96431 3.28591 5.23550
C 15.65917 2.98033 3.91018
C 13.82453 4.25397 4.96514
C 15.51853 1.05468 6.50050
C 15.43937 1.36967 7.99591
H 15.72608 0.30064 8.94851
N 17.18399 2.81251 1.25297
C 17.40615 3.71192 2.23429
C 18.54368 4.52789 1.78220
C 18.86949 4.14354 0.38190
C 17.76504 3.25204 0.08948
C 19.25652 5.49800 2.67894
C 19.98292 4.52627 -0.54546
O 19.93845 4.25764 -1.79793
C 21.08348 5.30678 0.03855
N 15.50848 1.41647 -0.85675
C 16.35113 2.08652 -1.66229
C 16.13049 1.71813 -3.11004
C 15.12362 0.47582 -3.08860
C 14.85479 0.39415 -1.56990
C 15.55686 2.82254 -3.99752
C 15.57853 -0.81164 -3.82900
C 16.75765 -1.42964 -3.11265
N 14.20248 -0.06311 1.29792
C 13.54908 -0.68265 0.21011
C 12.47638 -1.52921 0.77141
C 12.56600 -1.32398 2.15646
C 13.60702 -0.39821 2.43704
C 11.55380 -2.31025 0.01977
C 12.00973 -1.67182 3.44419
O 11.16582 -2.47619 3.83730
C 12.59271 -0.67166 4.53333
C 13.05170 -1.48503 5.71243
O 14.00326 -2.27800 5.60130
O 12.43832 -1.03642 6.82278
C 12.86950 -1.80483 8.02088
H 16.80069 4.81512 3.93563
H 17.88779 3.24352 -2.01078
H 13.35624 -1.09606 -1.75036
H 13.52291 1.85514 6.14220
H 15.67957 3.65906 5.96388
H 12.86654 3.75567 4.95508
H 14.03351 4.69164 3.99777
H 13.85312 5.07958 5.68199
H 16.51959 1.44639 6.27871
H 15.45580 -0.00563 6.35073
H 14.50545 1.88015 8.26075
H 16.21961 2.09484 8.23957
H 18.68944 5.68684 3.59881
H 19.26545 6.46383 2.16226
H 20.28600 5.19972 2.88838
H 20.68862 6.22768 0.46102
H 21.82466 5.40717 -0.75671
H 21.51297 4.73764 0.87055
H 17.05830 1.41048 -3.57654
H 14.16314 0.72152 -3.56499
H 16.19225 3.05271 -4.87352
H 15.41074 3.70645 -3.39099
H 14.55422 2.63514 -4.37805
H 15.92128 -0.56747 -4.83749
H 14.79346 -1.55402 -3.92660
H 17.60802 -0.86147 -3.50142
H 16.84381 -2.48632 -3.35767
H 16.70345 -1.24488 -2.03349
H 11.47499 -3.26619 0.52023
H 11.87924 -2.42637 -1.01192
H 10.65938 -1.68673 0.10035
H 11.79527 0.02279 4.80055
H 11.96316 -2.19895 8.49089
H 13.48389 -1.10581 8.61892
H 13.43499 -2.71451 7.85608

