%nproc=24
%mem=175gb
#p cam-b3lyp/Def2SVP td=(nstates=5)

TDDFT excited states in gaussian

0 1
Mg 0.00000 0.00000 0.00000
C -0.21700 -2.21800 2.80100
C -1.25500 2.44200 2.02600
C -0.24500 1.85000 -2.56400
C 0.14600 -2.82400 -2.03700
N -0.61700 -0.00900 2.12600
C -0.59400 -0.90800 3.10500
C -0.93600 -0.30900 4.50200
C -1.77300 0.96400 4.03200
C -1.15500 1.16800 2.66000
C -3.26300 0.68500 3.86300
C 0.34500 0.11000 5.29900
C 0.12400 0.39700 6.78700
H 1.16800 0.03300 7.73300
N -0.18500 1.96100 -0.15200
C -0.70300 2.80000 0.77700
C -0.62000 4.15600 0.19300
C -0.18700 4.01500 -1.22500
C -0.21400 2.58300 -1.38000
C -0.88700 5.40600 0.97400
C 0.18100 5.01300 -2.27700
O 0.30300 4.69000 -3.50800
C 0.31000 6.41400 -1.83700
N -0.26500 -0.41300 -2.02900
C -0.27900 0.56900 -2.93700
C -0.19600 0.02400 -4.33200
C 0.12400 -1.53300 -4.18000
C 0.08600 -1.63200 -2.63500
C -1.45100 0.20500 -5.19700
C 1.37300 -2.07000 -4.92300
C 2.62600 -1.49000 -4.30600
N 0.15000 -2.14400 0.30300
C 0.17300 -3.13600 -0.68800
C 0.17300 -4.43800 0.00400
C 0.13300 -4.11100 1.35800
C 0.08300 -2.69500 1.50200
C 0.14900 -5.71500 -0.62300
C 0.09600 -4.62900 2.71600
O 0.20800 -5.74700 3.22100
C -0.25500 -3.42800 3.70100
C 0.71700 -3.48200 4.84800
O 1.93100 -3.25500 4.66900
O 0.03800 -3.55600 6.00300
C 0.94300 -3.58300 7.18300
H -1.85900 3.22000 2.49700
H -0.21800 2.45300 -3.47400
H 0.27600 -3.74700 -2.60500
H -1.55400 -0.94900 5.13200
H -1.58500 1.83100 4.66500
H -3.48400 -0.37700 3.96900
H -3.51100 1.02700 2.85800
H -3.85200 1.30100 4.54300
H 0.66900 1.09600 4.96600
H 1.13000 -0.63900 5.18900
H -0.84400 0.02600 7.12500
H 0.06200 1.47700 6.92100
H -1.34400 5.18600 1.93800
H -1.65100 5.96300 0.43200
H 0.00700 6.02000 1.08400
H -0.63500 6.74400 -1.40500
H 0.66500 6.97000 -2.70400
H 1.04800 6.46600 -1.03600
H 0.60800 0.50100 -4.89100
H -0.69200 -2.15600 -4.54700
H -1.26700 0.74000 -6.12900
H -2.20400 0.71400 -4.59600
H -1.96700 -0.72000 -5.45300
H 1.35600 -1.75900 -5.96700
H 1.45200 -3.15700 -4.90200
H 2.71400 -0.52200 -4.79800
H 3.48700 -2.12100 -4.52900
H 2.49500 -1.30300 -3.24000
H 0.86700 -6.33300 -0.08400
H 0.40400 -5.64200 -1.68000
H -0.89100 -5.99900 -0.46300
H -1.28300 -3.58100 4.02800
H 0.69800 -4.47800 7.75500
H 0.83300 -2.61900 7.68000
H 2.00000 -3.75400 6.97600
Mg 8.92944 0.79806 0.68576
C 7.58042 3.23768 2.94574
C 10.69402 -0.45123 3.32397
C 10.47357 -1.07178 -1.36040
C 7.98056 2.89851 -1.92832
N 9.03859 1.40065 2.81114
C 8.43438 2.30373 3.56858
C 8.70140 2.14971 5.08994
C 10.09885 1.36252 5.01033
C 9.92695 0.69664 3.64661
C 11.30556 2.28377 4.94331
C 7.59944 1.29280 5.80646
C 7.62639 1.35877 7.33508
H 6.35721 1.31604 8.05608
N 9.98393 -0.85366 0.99947
C 10.61351 -1.21325 2.13772
C 11.26241 -2.50152 1.84883
C 11.10186 -2.79276 0.39828
C 10.51889 -1.54687 -0.05779
C 11.88009 -3.35871 2.91519
C 11.43174 -3.98920 -0.44191
O 11.42627 -3.93491 -1.72248
C 11.85201 -5.20017 0.27810
N 9.38219 0.98990 -1.33428
C 10.01760 0.00736 -1.99669
C 9.98889 0.24727 -3.48733
C 8.98850 1.47575 -3.70558
C 8.66697 1.80526 -2.23132
C 11.33571 0.56663 -4.13578
C 7.80618 1.25453 -4.68835
C 6.84128 0.24165 -4.11524
N 7.79697 2.62799 0.49360
C 7.54175 3.35273 -0.69118
C 6.82944 4.58696 -0.30167
C 6.73929 4.50504 1.09606
C 7.36995 3.31432 1.54767
C 6.40638 5.61798 -1.18718
C 6.26338 5.16029 2.29308
O 5.57946 6.15647 2.52467
C 6.89794 4.43097 3.55475
C 5.79652 4.17729 4.54723
O 4.86933 3.39411 4.27599
O 6.13176 4.72850 5.72797
C 5.07530 4.49400 6.74813
H 11.46113 -0.77703 4.02701
H 10.89571 -1.73487 -2.11907
H 7.56420 3.55717 -2.69349
H 8.83021 3.08276 5.62529
H 10.17516 0.61298 5.79374
H 11.01671 3.31924 4.84080
H 11.87357 1.96221 4.08017
H 11.95373 2.11954 5.80889
H 7.82256 0.22808 5.66038
H 6.62196 1.55464 5.45065
H 8.24871 2.18441 7.70112
H 8.12266 0.46137 7.71245
H 11.99370 -2.80888 3.85763
H 12.90715 -3.57150 2.59936
H 11.35055 -4.30348 3.05542
H 12.73222 -4.97735 0.87646
H 11.95790 -5.97259 -0.48612
H 11.05869 -5.48366 0.97873
H 9.60198 -0.61831 -4.01095
H 9.50597 2.35424 -4.11828
H 11.60281 -0.12985 -4.95288
H 12.09569 0.55878 -3.36578
H 11.42656 1.57347 -4.53979
H 8.16999 0.83791 -5.63081
H 7.26587 2.16481 -4.92591
H 7.29609 -0.71498 -4.38926
H 5.85662 0.35366 -4.56461
H 6.81926 0.29463 -3.02054
H 5.40571 5.89684 -0.88489
H 6.43186 5.28733 -2.22342
H 7.16547 6.37693 -0.97969
H 7.66979 5.08725 3.95862
H 4.78291 5.47450 7.13649
H 5.50996 3.77597 7.46873
H 4.12219 4.11021 6.40354

