%nproc=24
%mem=175gb
#p cam-b3lyp/Def2SVP td=(nstates=5)

TDDFT excited states in gaussian

0 1
Mg 31.53468 2.83187 2.40306
C 28.89486 3.57140 4.71899
C 33.73359 3.65814 4.87625
C 33.86716 2.62468 0.26203
C 29.19556 3.17312 -0.15775
N 31.23178 3.51130 4.48606
C 30.18472 3.69671 5.27576
C 30.53984 3.95677 6.76433
C 32.02945 4.52123 6.56110
C 32.37510 3.83014 5.24368
C 32.07863 6.02384 6.33949
C 30.53588 2.64059 7.61852
C 30.56932 2.85677 9.13308
H 29.83051 1.92900 9.98507
N 33.49256 2.62481 2.65284
C 34.21921 2.99402 3.72845
C 35.61287 2.64580 3.41125
C 35.67237 2.19219 1.99512
C 34.32038 2.48921 1.56617
C 36.71336 2.68319 4.43153
C 36.76878 1.60213 1.16092
O 36.66694 1.50360 -0.11296
C 38.00240 1.22904 1.86836
N 31.58409 3.09754 0.34167
C 32.71650 2.89524 -0.35449
C 32.44726 2.87545 -1.84026
C 30.85490 2.86527 -1.98822
C 30.46164 2.97586 -0.49876
C 33.02464 4.04543 -2.63661
C 30.23395 1.71962 -2.83355
C 30.43098 0.39524 -2.13172
N 29.39507 3.10435 2.27701
C 28.62123 3.24900 1.10470
C 27.23361 3.52447 1.53023
C 27.30142 3.54395 2.93148
C 28.64078 3.31803 3.34932
C 26.13000 3.76470 0.66395
C 26.54647 3.71481 4.15195
O 25.35384 3.84525 4.42462
C 27.56744 3.86585 5.36076
C 27.10983 2.96026 6.47117
O 27.11602 1.72552 6.32291
O 26.94815 3.68550 7.59289
C 26.50541 2.82934 8.72549
H 34.50204 4.11049 5.50375
H 34.61343 2.45170 -0.51684
H 28.38923 3.19450 -0.89399
H 29.92395 4.70092 7.25495
H 32.69151 4.18332 7.35411
H 31.09105 6.44852 6.23718
H 32.64874 6.16872 5.43118
H 32.65407 6.50375 7.13628
H 31.49349 2.12197 7.48157
H 29.69896 2.02131 7.36029
H 30.34145 3.89420 9.40650
H 31.59364 2.70631 9.48256
H 36.40192 3.21365 5.33984
H 37.51416 3.30405 4.01547
H 37.11434 1.69228 4.65507
H 38.41389 2.10540 2.36347
H 38.63267 0.74369 1.12065
H 37.75004 0.51145 2.65703
H 32.84809 1.97736 -2.29399
H 30.48549 3.77750 -2.47934
H 33.69597 3.72652 -3.45617
H 33.54582 4.70061 -1.95130
H 32.28631 4.71279 -3.07786
H 30.74472 1.63970 -3.79630
H 29.17795 1.85855 -3.03980
H 31.44613 0.10993 -2.42354
H 29.70118 -0.33396 -2.47771
H 30.42434 0.52201 -1.04290
H 25.29423 3.20459 1.06179
H 26.35599 3.47042 -0.35884
H 26.03327 4.84877 0.76732
H 27.56679 4.91437 5.66105
H 25.57970 3.26582 9.11309
H 27.36723 2.77986 9.41727
H 26.18333 1.82055 8.49513

