%nproc=24
%mem=175gb
#p cam-b3lyp/Def2SVP td=(nstates=5)

TDDFT excited states in gaussian

0 1
Mg 31.54176 2.84280 2.39191
C 33.87699 0.70458 4.08123
C 32.97831 5.46232 4.03783
C 29.21880 4.69145 1.27218
C 29.59879 0.01293 1.78990
N 33.20600 2.94359 3.84532
C 34.05896 2.07405 4.36562
C 35.21773 2.71542 5.17522
C 34.50499 4.10283 5.55730
C 33.52271 4.20204 4.39198
C 33.70792 4.03414 6.84931
C 36.49948 2.94977 4.30104
C 37.76560 3.28416 5.09281
H 39.04606 2.78142 4.60278
N 31.43979 4.81771 2.22486
C 32.10843 5.73200 2.95852
C 31.67073 7.04534 2.46079
C 30.56648 6.83329 1.48592
C 30.34670 5.40944 1.64218
C 32.34197 8.32933 2.85352
C 29.82178 7.76106 0.57440
O 28.73958 7.40382 -0.01218
C 30.34559 9.13018 0.46204
N 29.57962 2.45396 1.82520
C 28.79939 3.42699 1.32283
C 27.53122 2.85876 0.73185
C 27.73354 1.27237 0.72525
C 29.10717 1.18953 1.42643
C 26.23938 3.20372 1.47246
C 27.55328 0.54556 -0.63560
C 28.65989 0.94537 -1.58479
N 31.76681 0.71266 2.67458
C 30.82014 -0.29201 2.37701
C 31.38217 -1.57368 2.85016
C 32.61657 -1.21972 3.41538
C 32.80118 0.18613 3.32058
C 30.74096 -2.84216 2.77311
C 33.80065 -1.71434 4.08020
O 34.24190 -2.83005 4.35263
C 34.61292 -0.47462 4.65439
C 36.05792 -0.65034 4.27542
O 36.40706 -0.61638 3.08229
O 36.81317 -0.61166 5.38829
C 38.25562 -0.77062 5.06287
H 33.20403 6.32125 4.67043
H 28.43321 5.26863 0.77905
H 29.09803 -0.92783 1.55142
H 35.49425 2.17928 6.07514
H 35.21053 4.92925 5.53267
H 33.65523 3.02769 7.23717
H 32.71849 4.39744 6.60423
H 34.11472 4.73798 7.58106
H 36.38070 3.88210 3.73411
H 36.68436 2.10787 3.66256
H 37.65196 3.06865 6.16220
H 37.92488 4.36445 5.05256
H 33.01328 8.18690 3.70935
H 31.55953 8.99698 3.23021
H 32.84690 8.81419 2.01529
H 30.36084 9.59287 1.44599
H 29.73432 9.61519 -0.30149
H 31.38592 9.07991 0.12174
H 27.39273 3.19959 -0.28685
H 27.01297 0.76698 1.38495
H 25.49000 3.70618 0.83212
H 26.48890 3.82327 2.32360
H 25.73605 2.35960 1.94080
H 26.61538 0.85029 -1.10639
H 27.53350 -0.53565 -0.54853
H 28.29899 1.89099 -2.00028
H 28.78686 0.19530 -2.36281
H 29.58770 1.15712 -1.04074
H 31.49056 -3.55060 2.44644
H 29.89234 -2.81799 2.09266
H 30.42938 -2.96671 3.81362
H 34.47181 -0.46303 5.73583
H 38.62462 -1.61625 5.65146
H 38.71598 0.21656 5.25597
H 38.51095 -1.08513 4.05771

