%nproc=24
%mem=175gb
#p cam-b3lyp/Def2SVP td=(nstates=5)

TDDFT excited states in gaussian

0 1
Mg 15.75890 1.42316 1.20428
C 13.40461 -1.28542 1.20058
C 13.25214 3.40649 0.01383
C 17.91180 3.71296 0.76923
C 18.29557 -0.96516 1.28769
N 13.64449 0.99991 0.71195
C 12.84471 -0.05138 0.80928
C 11.34582 0.25414 0.54555
C 11.52381 1.57212 -0.35452
C 12.87422 2.04962 0.17563
C 11.67143 1.27298 -1.83711
C 10.55731 0.56284 1.86651
C 9.03402 0.56564 1.72045
H 8.22728 0.07012 2.83225
N 15.52318 3.37952 0.96834
C 14.43207 4.01627 0.49370
C 14.76854 5.44838 0.49754
C 16.20535 5.59169 0.85777
C 16.61671 4.20213 0.85879
C 13.74968 6.52427 0.25712
C 17.06954 6.78311 1.14040
O 18.34653 6.68993 1.19917
C 16.38354 8.07851 1.25368
N 17.80483 1.38351 0.83697
C 18.51217 2.52297 0.74091
C 19.99662 2.24605 0.75150
C 20.14199 0.69656 1.11962
C 18.64817 0.30789 1.17289
C 20.73559 2.52971 -0.55612
C 21.04143 0.34349 2.33576
C 20.40587 0.84772 3.61138
N 15.86749 -0.72345 1.42417
C 17.02987 -1.52509 1.40548
C 16.58878 -2.93323 1.47612
C 15.18838 -2.85341 1.50804
C 14.78460 -1.49258 1.44027
C 17.44019 -4.07374 1.45466
C 13.95961 -3.61143 1.57293
O 13.67868 -4.79858 1.73260
C 12.74672 -2.63650 1.24920
C 11.68129 -2.86004 2.28719
O 11.89004 -2.57318 3.47914
O 10.52501 -3.16885 1.67237
C 9.43503 -3.38895 2.65995
H 12.60459 4.05905 -0.57245
H 18.69959 4.46878 0.72932
H 19.02839 -1.76450 1.41696
H 10.81811 -0.50934 -0.01338
H 10.74957 2.30425 -0.14027
H 11.75095 0.21315 -2.02831
H 12.57257 1.78286 -2.15178
H 10.85308 1.73358 -2.39790
H 10.72132 1.61190 2.14457
H 10.84411 -0.11331 2.64830
H 8.70955 0.10984 0.77710
H 8.69423 1.60168 1.64835
H 12.81584 6.11152 -0.14410
H 14.13620 7.15612 -0.54987
H 13.57581 7.14440 1.13910
H 15.84673 8.28480 0.33078
H 17.15533 8.79337 1.54553
H 15.63061 8.00750 2.04657
H 20.49465 2.83595 1.51116
H 20.58703 0.12167 0.29422
H 21.57106 3.24548 -0.43890
H 20.01989 2.89590 -1.28014
H 21.14217 1.65249 -1.05648
H 22.00788 0.84639 2.25069
H 21.23867 -0.71887 2.43314
H 20.71321 1.89733 3.64208
H 20.78592 0.29985 4.47129
H 19.31212 0.82643 3.54126
H 17.06881 -4.75376 2.20974
H 18.47661 -3.79973 1.64044
H 17.28351 -4.41480 0.42782
H 12.39528 -2.87333 0.24423
H 9.02475 -4.38487 2.46631
H 8.74809 -2.52974 2.54316
H 9.71407 -3.47442 3.70363

