%nproc=24
%mem=175gb
#p cam-b3lyp/Def2SVP td=(nstates=5)

TDDFT excited states in gaussian

0 1
Mg 0.00000 0.00000 0.00000
C -0.21700 -2.21800 2.80100
C -1.25500 2.44200 2.02600
C -0.24500 1.85000 -2.56400
C 0.14600 -2.82400 -2.03700
N -0.61700 -0.00900 2.12600
C -0.59400 -0.90800 3.10500
C -0.93600 -0.30900 4.50200
C -1.77300 0.96400 4.03200
C -1.15500 1.16800 2.66000
C -3.26300 0.68500 3.86300
C 0.34500 0.11000 5.29900
C 0.12400 0.39700 6.78700
H 1.16800 0.03300 7.73300
N -0.18500 1.96100 -0.15200
C -0.70300 2.80000 0.77700
C -0.62000 4.15600 0.19300
C -0.18700 4.01500 -1.22500
C -0.21400 2.58300 -1.38000
C -0.88700 5.40600 0.97400
C 0.18100 5.01300 -2.27700
O 0.30300 4.69000 -3.50800
C 0.31000 6.41400 -1.83700
N -0.26500 -0.41300 -2.02900
C -0.27900 0.56900 -2.93700
C -0.19600 0.02400 -4.33200
C 0.12400 -1.53300 -4.18000
C 0.08600 -1.63200 -2.63500
C -1.45100 0.20500 -5.19700
C 1.37300 -2.07000 -4.92300
C 2.62600 -1.49000 -4.30600
N 0.15000 -2.14400 0.30300
C 0.17300 -3.13600 -0.68800
C 0.17300 -4.43800 0.00400
C 0.13300 -4.11100 1.35800
C 0.08300 -2.69500 1.50200
C 0.14900 -5.71500 -0.62300
C 0.09600 -4.62900 2.71600
O 0.20800 -5.74700 3.22100
C -0.25500 -3.42800 3.70100
C 0.71700 -3.48200 4.84800
O 1.93100 -3.25500 4.66900
O 0.03800 -3.55600 6.00300
C 0.94300 -3.58300 7.18300
H -1.85900 3.22000 2.49700
H -0.21800 2.45300 -3.47400
H 0.27600 -3.74700 -2.60500
H -1.55400 -0.94900 5.13200
H -1.58500 1.83100 4.66500
H -3.48400 -0.37700 3.96900
H -3.51100 1.02700 2.85800
H -3.85200 1.30100 4.54300
H 0.66900 1.09600 4.96600
H 1.13000 -0.63900 5.18900
H -0.84400 0.02600 7.12500
H 0.06200 1.47700 6.92100
H -1.34400 5.18600 1.93800
H -1.65100 5.96300 0.43200
H 0.00700 6.02000 1.08400
H -0.63500 6.74400 -1.40500
H 0.66500 6.97000 -2.70400
H 1.04800 6.46600 -1.03600
H 0.60800 0.50100 -4.89100
H -0.69200 -2.15600 -4.54700
H -1.26700 0.74000 -6.12900
H -2.20400 0.71400 -4.59600
H -1.96700 -0.72000 -5.45300
H 1.35600 -1.75900 -5.96700
H 1.45200 -3.15700 -4.90200
H 2.71400 -0.52200 -4.79800
H 3.48700 -2.12100 -4.52900
H 2.49500 -1.30300 -3.24000
H 0.86700 -6.33300 -0.08400
H 0.40400 -5.64200 -1.68000
H -0.89100 -5.99900 -0.46300
H -1.28300 -3.58100 4.02800
H 0.69800 -4.47800 7.75500
H 0.83300 -2.61900 7.68000
H 2.00000 -3.75400 6.97600
Mg 15.77386 1.42211 1.19077
C 15.26315 4.96800 0.97897
C 15.15777 1.28376 -2.16123
C 15.77218 -1.74235 1.42235
C 15.22027 1.68733 4.62135
N 15.28612 2.99108 -0.29001
C 15.17946 4.31108 -0.26638
C 15.05157 4.97118 -1.66548
C 14.46098 3.71399 -2.47143
C 15.02872 2.58510 -1.61354
C 12.94425 3.63014 -2.42834
C 16.43907 5.42290 -2.24235
C 16.35941 6.34818 -3.45861
H 17.36490 7.39742 -3.60199
N 15.98910 0.03186 -0.20904
C 15.71291 0.15205 -1.52454
C 16.02173 -1.15648 -2.12166
C 16.34605 -2.10803 -1.02436
C 16.02100 -1.29747 0.13211
C 16.06849 -1.38344 -3.60481
C 16.85139 -3.51898 -1.01730
O 16.83593 -4.23443 0.04606
C 17.27799 -4.06904 -2.31226
N 15.32400 0.12272 2.75012
C 15.45528 -1.20717 2.60153
C 15.34355 -1.91804 3.92915
C 15.35131 -0.76408 5.03636
C 15.37747 0.47313 4.11224
C 14.10293 -2.79166 4.11363
C 16.42072 -0.87184 6.15771
C 17.80135 -0.67230 5.57510
N 15.50581 3.03522 2.60288
C 15.26187 2.92350 3.98927
C 15.03519 4.28995 4.50295
C 15.14103 5.10610 3.36664
C 15.39435 4.30289 2.22201
C 14.72577 4.63175 5.84963
C 15.08551 6.46345 2.87346
O 14.98822 7.57374 3.39455
C 15.03654 6.42246 1.28528
C 16.04120 7.41307 0.76387
O 17.25759 7.24084 0.95710
O 15.42063 8.27883 -0.05815
C 16.37796 9.27457 -0.60937
H 14.75830 1.09873 -3.15876
H 15.86949 -2.81947 1.57668
H 15.13844 1.86362 5.69601
H 14.35867 5.80264 -1.71385
H 14.86414 3.66641 -3.47967
H 12.51886 4.36565 -1.76185
H 12.71457 2.63014 -2.08438
H 12.53382 3.70272 -3.43958
H 16.93675 4.55688 -2.69739
H 17.03840 5.88006 -1.47917
H 15.35227 6.75936 -3.59845
H 16.53361 5.75379 -4.35881
H 15.62380 -0.54459 -4.15433
H 15.40735 -2.22994 -3.81975
H 17.07270 -1.61940 -3.96336
H 16.44679 -4.03078 -3.01234
H 17.68999 -5.05519 -2.08943
H 18.06514 -3.42688 -2.72292
H 16.19455 -2.56775 4.09276
H 14.40124 -0.72340 5.58913
H 14.34243 -3.84426 4.35597
H 13.50832 -2.73495 3.21155
H 13.40374 -2.44633 4.87329
H 16.41047 -1.87287 6.59588
H 16.27108 -0.16464 6.96669
H 18.05238 -1.66502 5.18963
H 18.50154 -0.36007 6.34729
H 17.77282 0.01515 4.72172
H 15.32501 5.49803 6.09653
H 14.92555 3.80329 6.52603
H 13.65602 4.83780 5.75770
H 14.01921 6.67313 0.98232
H 15.98435 10.26587 -0.36425
H 16.48340 9.02558 -1.68205
H 17.36419 9.32223 -0.16270

