%nproc=24
%mem=175gb
#p cam-b3lyp/Def2SVP td=(nstates=5)

TDDFT excited states in gaussian

0 1
Mg 0.00000 0.00000 0.00000
C -0.21700 -2.21800 2.80100
C -1.25500 2.44200 2.02600
C -0.24500 1.85000 -2.56400
C 0.14600 -2.82400 -2.03700
N -0.61700 -0.00900 2.12600
C -0.59400 -0.90800 3.10500
C -0.93600 -0.30900 4.50200
C -1.77300 0.96400 4.03200
C -1.15500 1.16800 2.66000
C -3.26300 0.68500 3.86300
C 0.34500 0.11000 5.29900
C 0.12400 0.39700 6.78700
H 1.16800 0.03300 7.73300
N -0.18500 1.96100 -0.15200
C -0.70300 2.80000 0.77700
C -0.62000 4.15600 0.19300
C -0.18700 4.01500 -1.22500
C -0.21400 2.58300 -1.38000
C -0.88700 5.40600 0.97400
C 0.18100 5.01300 -2.27700
O 0.30300 4.69000 -3.50800
C 0.31000 6.41400 -1.83700
N -0.26500 -0.41300 -2.02900
C -0.27900 0.56900 -2.93700
C -0.19600 0.02400 -4.33200
C 0.12400 -1.53300 -4.18000
C 0.08600 -1.63200 -2.63500
C -1.45100 0.20500 -5.19700
C 1.37300 -2.07000 -4.92300
C 2.62600 -1.49000 -4.30600
N 0.15000 -2.14400 0.30300
C 0.17300 -3.13600 -0.68800
C 0.17300 -4.43800 0.00400
C 0.13300 -4.11100 1.35800
C 0.08300 -2.69500 1.50200
C 0.14900 -5.71500 -0.62300
C 0.09600 -4.62900 2.71600
O 0.20800 -5.74700 3.22100
C -0.25500 -3.42800 3.70100
C 0.71700 -3.48200 4.84800
O 1.93100 -3.25500 4.66900
O 0.03800 -3.55600 6.00300
C 0.94300 -3.58300 7.18300
H -1.85900 3.22000 2.49700
H -0.21800 2.45300 -3.47400
H 0.27600 -3.74700 -2.60500
H -1.55400 -0.94900 5.13200
H -1.58500 1.83100 4.66500
H -3.48400 -0.37700 3.96900
H -3.51100 1.02700 2.85800
H -3.85200 1.30100 4.54300
H 0.66900 1.09600 4.96600
H 1.13000 -0.63900 5.18900
H -0.84400 0.02600 7.12500
H 0.06200 1.47700 6.92100
H -1.34400 5.18600 1.93800
H -1.65100 5.96300 0.43200
H 0.00700 6.02000 1.08400
H -0.63500 6.74400 -1.40500
H 0.66500 6.97000 -2.70400
H 1.04800 6.46600 -1.03600
H 0.60800 0.50100 -4.89100
H -0.69200 -2.15600 -4.54700
H -1.26700 0.74000 -6.12900
H -2.20400 0.71400 -4.59600
H -1.96700 -0.72000 -5.45300
H 1.35600 -1.75900 -5.96700
H 1.45200 -3.15700 -4.90200
H 2.71400 -0.52200 -4.79800
H 3.48700 -2.12100 -4.52900
H 2.49500 -1.30300 -3.24000
H 0.86700 -6.33300 -0.08400
H 0.40400 -5.64200 -1.68000
H -0.89100 -5.99900 -0.46300
H -1.28300 -3.58100 4.02800
H 0.69800 -4.47800 7.75500
H 0.83300 -2.61900 7.68000
H 2.00000 -3.75400 6.97600
Mg 15.76425 1.42799 1.20354
C 17.85781 0.81122 4.05234
C 13.10910 1.43947 3.34473
C 13.85156 1.52130 -1.32635
C 18.36729 0.24769 -0.79064
N 15.62844 1.15066 3.39372
C 16.49687 0.98437 4.37990
C 15.88240 1.08503 5.80182
C 14.36541 0.70620 5.43560
C 14.34650 1.15653 3.97631
C 14.09121 -0.78791 5.47797
C 15.98525 2.53350 6.39624
C 15.68758 2.63673 7.89374
H 16.43894 3.60508 8.68761
N 13.85665 1.95470 1.05449
C 12.92377 1.91785 2.02900
C 11.67504 2.38670 1.40850
C 11.90847 2.54661 -0.05255
C 13.23769 1.98149 -0.17053
C 10.44393 2.71268 2.20319
C 11.06863 3.10287 -1.16225
O 11.37635 2.92497 -2.39371
C 9.82590 3.78169 -0.76687
N 15.98023 0.75831 -0.75279
C 15.01758 0.97198 -1.66689
C 15.50651 0.65116 -3.05916
C 17.08053 0.40705 -2.91613
C 17.22024 0.54749 -1.38441
C 14.86206 -0.56326 -3.72718
C 18.01007 1.25792 -3.82423
C 17.94160 2.71162 -3.41501
N 17.81883 0.83750 1.51671
C 18.72339 0.35014 0.54804
C 19.96251 -0.02534 1.25939
C 19.68242 0.25027 2.60627
C 18.35489 0.74246 2.72835
C 21.12554 -0.58944 0.66334
C 20.20423 0.22676 3.95381
O 21.30161 -0.01186 4.45637
C 19.00254 0.46978 4.96537
C 19.43749 1.50872 5.96233
O 19.66712 2.67586 5.59945
O 19.30085 1.01138 7.20504
C 19.70946 2.00904 8.22951
H 12.18856 1.23683 3.89283
H 13.27215 1.63544 -2.24545
H 19.25920 -0.03612 -1.35334
H 16.27953 0.37716 6.51944
H 13.66011 1.28798 6.02334
H 14.99453 -1.35907 5.63267
H 13.64782 -1.03285 4.52170
H 13.32832 -1.00999 6.22964
H 15.16331 3.14281 5.99887
H 16.94576 2.96338 6.18828
H 15.68900 1.65507 8.38291
H 14.66394 2.99761 8.02000
H 10.51883 2.33962 3.23208
H 9.61970 2.13908 1.76561
H 10.19124 3.77467 2.17174
H 9.19946 3.09108 -0.20733
H 9.40870 4.18854 -1.69007
H 10.07695 4.60190 -0.08508
H 15.33976 1.48546 -3.72942
H 17.35634 -0.62868 -3.16319
H 14.38694 -0.32653 -4.69789
H 14.13846 -0.98547 -3.04257
H 15.53178 -1.40345 -3.90256
H 17.67147 1.21140 -4.86218
H 19.04500 0.93289 -3.80823
H 17.04663 3.07146 -3.93138
H 18.83003 3.24520 -3.74669
H 17.76243 2.80927 -2.33797
H 21.97604 -0.08333 1.10037
H 21.11022 -0.48052 -0.41909
H 21.01681 -1.63245 0.97252
H 18.77682 -0.48522 5.44140
H 20.47684 1.53477 8.84910
H 18.77507 2.31883 8.73419
H 20.23194 2.89438 7.88653

