%nproc=24
%mem=175gb
#p cam-b3lyp/Def2SVP td=(nstates=5)

TDDFT excited states in gaussian

0 1
Mg 15.77409 1.41241 1.19923
C 15.95177 -0.14156 -2.03073
C 15.07128 -1.67049 2.47845
C 15.16766 2.81413 3.98039
C 15.35553 4.45782 -0.44271
N 15.56623 -0.57274 0.24622
C 15.71645 -1.05193 -0.97941
C 15.68822 -2.60117 -1.07223
C 14.84935 -2.90680 0.26259
C 15.20716 -1.65893 1.06724
C 13.34616 -2.91663 0.03968
C 17.12410 -3.23026 -1.00493
C 17.19820 -4.70723 -1.39840
H 18.38372 -5.17984 -2.10809
N 15.68741 0.65030 3.02960
C 15.41145 -0.62692 3.36702
C 15.44950 -0.67191 4.83695
C 15.60780 0.71794 5.34485
C 15.46986 1.46654 4.11170
C 15.41990 -1.95670 5.61275
C 15.83184 1.28100 6.71561
O 15.70157 2.53265 6.95897
C 16.11664 0.31192 7.78391
N 15.11577 3.31892 1.70337
C 14.98513 3.68751 2.98984
C 14.76696 5.17684 3.11110
C 15.02062 5.76880 1.64727
C 15.26490 4.45076 0.88013
C 13.38549 5.60899 3.60220
C 16.07298 6.90413 1.51986
C 17.45339 6.36400 1.81670
N 15.85217 2.09945 -0.84770
C 15.62101 3.41125 -1.31655
C 15.67291 3.36168 -2.79211
C 15.90969 2.00957 -3.08233
C 15.97894 1.26533 -1.87369
C 15.46405 4.46304 -3.66932
C 16.10621 1.04086 -4.13669
O 16.23585 1.10120 -5.35869
C 16.01628 -0.41603 -3.50759
C 17.18159 -1.21650 -4.02122
O 18.34585 -0.90797 -3.71153
O 16.72203 -2.33528 -4.61071
C 17.84126 -3.16780 -5.12652
H 14.62239 -2.54552 2.94929
H 15.05887 3.36635 4.91671
H 15.33222 5.38175 -1.02451
H 15.16765 -2.99503 -1.93690
H 15.21411 -3.80037 0.76243
H 13.08483 -2.59866 -0.95869
H 12.93552 -2.23538 0.77338
H 12.93586 -3.90161 0.28011
H 17.43573 -3.29972 0.04521
H 17.81648 -2.66351 -1.59658
H 16.28640 -5.04483 -1.90595
H 17.23530 -5.30788 -0.48634
H 15.13352 -2.80380 4.97729
H 14.60359 -1.87333 6.33839
H 16.35191 -2.14620 6.14951
H 15.29360 -0.39475 7.85928
H 16.33557 0.91024 8.67045
H 17.00380 -0.26694 7.50377
H 15.48013 5.61759 3.79684
H 14.10825 6.21421 1.22414
H 13.42281 6.24107 4.50948
H 12.79378 4.72113 3.78138
H 12.78236 6.14495 2.87132
H 15.87941 7.68470 2.25972
H 16.07976 7.37934 0.54461
H 17.50013 6.39327 2.90942
H 18.21698 6.99887 1.37183
H 17.53959 5.31481 1.51106
H 16.22413 4.39850 -4.43653
H 15.51489 5.41055 -3.13695
H 14.45234 4.24340 -4.02068
H 15.06007 -0.84490 -3.80978
H 17.65137 -3.33403 -6.19142
H 17.87376 -4.06134 -4.47517
H 18.82752 -2.71956 -5.15501

