%nproc=24
%mem=175gb
#p cam-b3lyp/Def2SVP td=(nstates=5)

TDDFT excited states in gaussian

0 1
Mg 0.00000 0.00000 0.00000
C -0.21700 -2.21800 2.80100
C -1.25500 2.44200 2.02600
C -0.24500 1.85000 -2.56400
C 0.14600 -2.82400 -2.03700
N -0.61700 -0.00900 2.12600
C -0.59400 -0.90800 3.10500
C -0.93600 -0.30900 4.50200
C -1.77300 0.96400 4.03200
C -1.15500 1.16800 2.66000
C -3.26300 0.68500 3.86300
C 0.34500 0.11000 5.29900
C 0.12400 0.39700 6.78700
H 1.16800 0.03300 7.73300
N -0.18500 1.96100 -0.15200
C -0.70300 2.80000 0.77700
C -0.62000 4.15600 0.19300
C -0.18700 4.01500 -1.22500
C -0.21400 2.58300 -1.38000
C -0.88700 5.40600 0.97400
C 0.18100 5.01300 -2.27700
O 0.30300 4.69000 -3.50800
C 0.31000 6.41400 -1.83700
N -0.26500 -0.41300 -2.02900
C -0.27900 0.56900 -2.93700
C -0.19600 0.02400 -4.33200
C 0.12400 -1.53300 -4.18000
C 0.08600 -1.63200 -2.63500
C -1.45100 0.20500 -5.19700
C 1.37300 -2.07000 -4.92300
C 2.62600 -1.49000 -4.30600
N 0.15000 -2.14400 0.30300
C 0.17300 -3.13600 -0.68800
C 0.17300 -4.43800 0.00400
C 0.13300 -4.11100 1.35800
C 0.08300 -2.69500 1.50200
C 0.14900 -5.71500 -0.62300
C 0.09600 -4.62900 2.71600
O 0.20800 -5.74700 3.22100
C -0.25500 -3.42800 3.70100
C 0.71700 -3.48200 4.84800
O 1.93100 -3.25500 4.66900
O 0.03800 -3.55600 6.00300
C 0.94300 -3.58300 7.18300
H -1.85900 3.22000 2.49700
H -0.21800 2.45300 -3.47400
H 0.27600 -3.74700 -2.60500
H -1.55400 -0.94900 5.13200
H -1.58500 1.83100 4.66500
H -3.48400 -0.37700 3.96900
H -3.51100 1.02700 2.85800
H -3.85200 1.30100 4.54300
H 0.66900 1.09600 4.96600
H 1.13000 -0.63900 5.18900
H -0.84400 0.02600 7.12500
H 0.06200 1.47700 6.92100
H -1.34400 5.18600 1.93800
H -1.65100 5.96300 0.43200
H 0.00700 6.02000 1.08400
H -0.63500 6.74400 -1.40500
H 0.66500 6.97000 -2.70400
H 1.04800 6.46600 -1.03600
H 0.60800 0.50100 -4.89100
H -0.69200 -2.15600 -4.54700
H -1.26700 0.74000 -6.12900
H -2.20400 0.71400 -4.59600
H -1.96700 -0.72000 -5.45300
H 1.35600 -1.75900 -5.96700
H 1.45200 -3.15700 -4.90200
H 2.71400 -0.52200 -4.79800
H 3.48700 -2.12100 -4.52900
H 2.49500 -1.30300 -3.24000
H 0.86700 -6.33300 -0.08400
H 0.40400 -5.64200 -1.68000
H -0.89100 -5.99900 -0.46300
H -1.28300 -3.58100 4.02800
H 0.69800 -4.47800 7.75500
H 0.83300 -2.61900 7.68000
H 2.00000 -3.75400 6.97600
Mg 13.14017 1.18546 0.98791
C 15.61756 -1.23309 0.04336
C 15.41134 3.60233 0.19096
C 11.15286 3.32347 2.23168
C 11.53305 -1.35480 2.75142
N 15.21333 1.07399 0.22514
C 16.02846 0.10158 -0.15477
C 17.32543 0.58675 -0.85622
C 17.39744 2.06494 -0.23282
C 15.91252 2.28362 0.04980
C 18.14878 2.12566 1.08670
C 17.18052 0.62845 -2.41804
C 18.49616 0.79447 -3.18176
H 18.64770 0.11182 -4.46375
N 13.05267 3.15286 0.74241
C 14.06469 3.97537 0.39519
C 13.49112 5.32979 0.36813
C 12.09840 5.25987 0.88789
C 12.05339 3.88271 1.33677
C 14.22522 6.51329 -0.19210
C 10.99448 6.26945 0.97903
O 9.94523 6.05808 1.68417
C 11.21968 7.55074 0.29415
N 11.68802 1.06544 2.47088
C 10.92886 2.13045 2.78289
C 9.77576 1.73595 3.67459
C 9.77972 0.13691 3.69983
C 11.04424 -0.12642 2.85305
C 9.83020 2.26742 5.10670
C 8.45964 -0.57656 3.29855
C 8.17458 -0.34771 1.83167
N 13.37924 -0.95115 1.20182
C 12.61287 -1.81844 2.01088
C 13.22574 -3.15914 1.91411
C 14.32848 -2.97247 1.06698
C 14.40973 -1.60739 0.68038
C 12.78391 -4.32707 2.59736
C 15.44845 -3.61768 0.42041
O 15.83670 -4.78002 0.31112
C 16.40654 -2.49511 -0.16976
C 16.75168 -2.87530 -1.58357
O 15.87217 -2.90675 -2.46226
O 18.09007 -2.92659 -1.71185
C 18.48192 -3.28908 -3.09997
H 16.12091 4.43021 0.18718
H 10.37768 3.99740 2.60370
H 11.03417 -2.22000 3.19325
H 18.21779 0.02988 -0.59668
H 17.75652 2.78480 -0.96373
H 18.40934 1.14179 1.44760
H 17.48273 2.61959 1.78201
H 19.02309 2.77617 0.99306
H 16.67713 1.56029 -2.70618
H 16.66204 -0.23974 -2.77589
H 19.36918 0.61169 -2.54349
H 18.59550 1.84145 -3.47836
H 15.28815 6.29077 -0.34720
H 14.22010 7.28841 0.58187
H 13.75598 6.91156 -1.09424
H 12.11597 8.02041 0.69231
H 10.28502 8.10542 0.39720
H 11.41309 7.35159 -0.76583
H 8.83414 2.07858 3.26343
H 9.98854 -0.25419 4.70645
H 8.93894 2.86028 5.38642
H 10.72990 2.85799 5.21765
H 9.95589 1.50807 5.87663
H 7.61677 -0.15093 3.84861
H 8.46772 -1.64321 3.49653
H 7.68968 0.63306 1.82459
H 7.51106 -1.11886 1.44551
H 9.10513 -0.25951 1.25899
H 12.81509 -5.13733 1.88110
H 11.78414 -4.19457 3.00562
H 13.54236 -4.39266 3.38203
H 17.28945 -2.44903 0.46893
H 19.12808 -4.16957 -3.02994
H 18.92427 -2.37293 -3.53441
H 17.70380 -3.64993 -3.76237

