%nproc=24
%mem=175gb
#p cam-b3lyp/Def2SVP td=(nstates=5)

TDDFT excited states in gaussian

0 1
Mg 31.52268 2.84188 2.39765
C 29.63720 0.03795 1.18852
C 29.77622 4.77519 0.19611
C 33.46944 5.24256 3.11477
C 33.85299 0.56453 3.63420
N 29.93672 2.35422 0.93506
C 29.25715 1.26561 0.60726
C 28.05345 1.51952 -0.33942
C 28.55796 2.88984 -1.00766
C 29.45405 3.39656 0.12058
C 29.41851 2.67642 -2.24186
C 26.70938 1.72332 0.44414
C 25.44701 1.66793 -0.41905
H 24.23858 1.07969 0.15203
N 31.30568 4.79596 2.12737
C 30.53896 5.40916 1.20141
C 30.74049 6.85227 1.40385
C 31.81503 7.03833 2.41651
C 32.26257 5.66979 2.58045
C 29.89654 7.89429 0.72904
C 32.35946 8.24938 3.11161
O 33.45408 8.20857 3.77717
C 31.62275 9.50604 2.91273
N 33.49123 2.91036 3.06283
C 34.08374 4.08286 3.34938
C 35.39464 3.87028 4.06822
C 35.44327 2.31119 4.42100
C 34.13574 1.85595 3.73651
C 36.65134 4.25460 3.28759
C 35.66801 1.93339 5.91078
C 34.46710 2.34128 6.73348
N 31.64829 0.69335 2.58764
C 32.72487 -0.05511 3.11194
C 32.39452 -1.48279 2.92480
C 31.14922 -1.46546 2.27871
C 30.74221 -0.12170 2.05926
C 33.22195 -2.58263 3.28788
C 30.09139 -2.27833 1.72290
O 29.84431 -3.48332 1.69667
C 29.12417 -1.34102 0.87891
C 27.70767 -1.66519 1.26745
O 27.29927 -1.43317 2.41896
O 27.01135 -1.99072 0.16312
C 25.59738 -2.30985 0.49578
H 29.45012 5.42928 -0.61303
H 34.12970 6.03283 3.47950
H 34.48261 -0.20806 4.08070
H 27.90893 0.76463 -1.10298
H 27.73132 3.57539 -1.17517
H 29.64723 1.63265 -2.39796
H 30.32555 3.24079 -2.06922
H 28.94296 3.13025 -3.11606
H 26.65262 2.76228 0.79356
H 26.62750 1.01971 1.24966
H 25.64546 1.24917 -1.41314
H 25.11868 2.69065 -0.61971
H 29.29874 7.46336 -0.08357
H 30.58229 8.58418 0.22540
H 29.28128 8.45867 1.43303
H 31.58361 9.73755 1.85097
H 32.11219 10.23715 3.55910
H 30.58768 9.36056 3.24148
H 35.42776 4.44006 4.98874
H 36.26567 1.80069 3.89861
H 37.28034 4.99864 3.81185
H 36.35001 4.62735 2.31764
H 37.30311 3.42356 3.02343
H 36.52229 2.48145 6.31574
H 35.86118 0.87690 6.06406
H 34.65454 3.40011 6.93558
H 34.42109 1.76555 7.65568
H 33.54548 2.27641 6.14352
H 32.57744 -3.31717 3.75216
H 34.02181 -2.27426 3.95788
H 33.59999 -2.87522 2.30465
H 29.31474 -1.53921 -0.17655
H 25.39481 -3.31093 0.10272
H 24.99811 -1.47620 0.08389
H 25.34535 -2.43839 1.54192

