%nproc=24
%mem=175gb
#p cam-b3lyp/Def2SVP td=(nstates=5)

TDDFT excited states in gaussian

0 1
Mg 8.93984 0.80748 0.67025
C 11.71261 -1.46626 0.81475
C 11.19777 3.34561 0.97717
C 6.49816 2.80694 0.99859
C 6.87799 -1.87145 1.51753
N 11.14331 0.81248 0.86243
C 12.09471 -0.10883 0.84321
C 13.53800 0.45837 0.77411
C 13.25691 1.90849 1.40420
C 11.78308 2.05544 1.03147
C 13.37177 1.93894 2.91919
C 14.06841 0.56504 -0.69875
C 15.57257 0.81722 -0.82390
H 16.29176 0.19986 -1.93480
N 8.85695 2.77899 0.45856
C 9.87370 3.65565 0.59630
C 9.29249 4.98623 0.35988
C 7.81707 4.83799 0.23391
C 7.66136 3.44121 0.58723
C 10.12879 6.22192 0.19521
C 6.72539 5.79811 -0.13025
O 5.48932 5.51381 0.05450
C 7.14946 7.11699 -0.62238
N 7.00419 0.56323 1.38855
C 6.12712 1.58226 1.37251
C 4.72801 1.10262 1.67719
C 4.80876 -0.49452 1.66302
C 6.32562 -0.66917 1.43058
C 4.13945 1.57039 3.00804
C 3.82572 -1.24056 0.71977
C 4.17887 -0.95690 -0.72252
N 9.18240 -1.32555 0.91397
C 8.19383 -2.25814 1.29749
C 8.86242 -3.56787 1.43905
C 10.20850 -3.29969 1.14816
C 10.37116 -1.91636 0.86631
C 8.23707 -4.78207 1.84002
C 11.53068 -3.87029 1.02581
O 11.99182 -5.01029 1.06454
C 12.58544 -2.68525 0.92816
C 13.51894 -2.98709 -0.21201
O 13.09935 -3.01335 -1.38242
O 14.78559 -2.97972 0.24178
C 15.74941 -3.26322 -0.85480
H 11.79501 4.20014 1.29651
H 5.60262 3.43224 1.02050
H 6.28705 -2.77478 1.68322
H 14.26462 -0.07408 1.37601
H 13.85237 2.67432 0.91400
H 13.50792 0.95076 3.33285
H 12.44735 2.37421 3.27560
H 14.16579 2.62697 3.22328
H 13.68479 1.48841 -1.15148
H 13.79972 -0.30581 -1.26448
H 16.10022 0.64028 0.12121
H 15.73081 1.87967 -1.02435
H 11.16736 6.04872 0.50309
H 9.75269 6.96037 0.91151
H 10.06625 6.64185 -0.81098
H 7.76431 7.60311 0.13135
H 6.23066 7.62915 -0.91456
H 7.78557 6.97385 -1.50300
H 4.03307 1.42615 0.91201
H 4.59120 -0.92229 2.65273
H 3.18270 2.11438 2.89502
H 4.87278 2.19033 3.50648
H 3.96761 0.78248 3.73938
H 2.80701 -0.87384 0.86777
H 3.80753 -2.31393 0.87641
H 3.68984 0.00331 -0.91208
H 3.78582 -1.73532 -1.37338
H 5.25817 -0.80623 -0.84113
H 8.61413 -5.55718 1.18616
H 7.15295 -4.70772 1.78579
H 8.59256 -4.85320 2.87144
H 13.10928 -2.63338 1.88339
H 16.35190 -4.11982 -0.53710
H 16.28334 -2.31160 -1.03669
H 15.34764 -3.62408 -1.79438

