%nproc=24
%mem=175gb
#p cam-b3lyp/Def2SVP td=(nstates=5)

TDDFT excited states in gaussian

0 1
Mg 0.00000 0.00000 0.00000
C -0.21700 -2.21800 2.80100
C -1.25500 2.44200 2.02600
C -0.24500 1.85000 -2.56400
C 0.14600 -2.82400 -2.03700
N -0.61700 -0.00900 2.12600
C -0.59400 -0.90800 3.10500
C -0.93600 -0.30900 4.50200
C -1.77300 0.96400 4.03200
C -1.15500 1.16800 2.66000
C -3.26300 0.68500 3.86300
C 0.34500 0.11000 5.29900
C 0.12400 0.39700 6.78700
H 1.16800 0.03300 7.73300
N -0.18500 1.96100 -0.15200
C -0.70300 2.80000 0.77700
C -0.62000 4.15600 0.19300
C -0.18700 4.01500 -1.22500
C -0.21400 2.58300 -1.38000
C -0.88700 5.40600 0.97400
C 0.18100 5.01300 -2.27700
O 0.30300 4.69000 -3.50800
C 0.31000 6.41400 -1.83700
N -0.26500 -0.41300 -2.02900
C -0.27900 0.56900 -2.93700
C -0.19600 0.02400 -4.33200
C 0.12400 -1.53300 -4.18000
C 0.08600 -1.63200 -2.63500
C -1.45100 0.20500 -5.19700
C 1.37300 -2.07000 -4.92300
C 2.62600 -1.49000 -4.30600
N 0.15000 -2.14400 0.30300
C 0.17300 -3.13600 -0.68800
C 0.17300 -4.43800 0.00400
C 0.13300 -4.11100 1.35800
C 0.08300 -2.69500 1.50200
C 0.14900 -5.71500 -0.62300
C 0.09600 -4.62900 2.71600
O 0.20800 -5.74700 3.22100
C -0.25500 -3.42800 3.70100
C 0.71700 -3.48200 4.84800
O 1.93100 -3.25500 4.66900
O 0.03800 -3.55600 6.00300
C 0.94300 -3.58300 7.18300
H -1.85900 3.22000 2.49700
H -0.21800 2.45300 -3.47400
H 0.27600 -3.74700 -2.60500
H -1.55400 -0.94900 5.13200
H -1.58500 1.83100 4.66500
H -3.48400 -0.37700 3.96900
H -3.51100 1.02700 2.85800
H -3.85200 1.30100 4.54300
H 0.66900 1.09600 4.96600
H 1.13000 -0.63900 5.18900
H -0.84400 0.02600 7.12500
H 0.06200 1.47700 6.92100
H -1.34400 5.18600 1.93800
H -1.65100 5.96300 0.43200
H 0.00700 6.02000 1.08400
H -0.63500 6.74400 -1.40500
H 0.66500 6.97000 -2.70400
H 1.04800 6.46600 -1.03600
H 0.60800 0.50100 -4.89100
H -0.69200 -2.15600 -4.54700
H -1.26700 0.74000 -6.12900
H -2.20400 0.71400 -4.59600
H -1.96700 -0.72000 -5.45300
H 1.35600 -1.75900 -5.96700
H 1.45200 -3.15700 -4.90200
H 2.71400 -0.52200 -4.79800
H 3.48700 -2.12100 -4.52900
H 2.49500 -1.30300 -3.24000
H 0.86700 -6.33300 -0.08400
H 0.40400 -5.64200 -1.68000
H -0.89100 -5.99900 -0.46300
H -1.28300 -3.58100 4.02800
H 0.69800 -4.47800 7.75500
H 0.83300 -2.61900 7.68000
H 2.00000 -3.75400 6.97600
Mg 10.50063 0.94897 0.79766
C 9.18918 -1.87235 -0.99101
C 9.44639 2.89512 -1.79766
C 12.03762 3.38436 2.12957
C 12.42080 -1.29364 2.64951
N 9.46346 0.45861 -1.09339
C 8.96044 -0.63951 -1.63695
C 8.09894 -0.39324 -2.90452
C 8.73227 1.01157 -3.35650
C 9.21627 1.51034 -1.99648
C 9.93927 0.86222 -4.26765
C 6.57188 -0.25433 -2.57165
C 5.64070 -0.32141 -3.78414
H 4.33843 -0.96318 -3.62696
N 10.30305 2.90295 0.51222
C 9.83672 3.52077 -0.59328
C 9.91056 4.96244 -0.30987
C 10.61209 5.14980 0.98915
C 11.03920 3.79104 1.25646
C 9.27689 5.99863 -1.19202
C 10.86862 6.35489 1.84247
O 11.70507 6.32684 2.81325
C 10.18176 7.59418 1.45022
N 12.16359 1.05657 2.04077
C 12.59340 2.23713 2.51981
C 13.62552 2.04238 3.60479
C 13.62250 0.47539 3.92436
C 12.60853 0.00199 2.85986
C 15.04614 2.48831 3.25930
C 13.39068 0.05908 5.40274
C 11.97979 0.40502 5.82118
N 10.64357 -1.19959 0.97463
C 11.53355 -1.93084 1.79152
C 11.33197 -3.36146 1.48308
C 10.34722 -3.36202 0.48371
C 9.97672 -2.02510 0.17569
C 12.04837 -4.44637 2.06262
C 9.54452 -4.18911 -0.38824
O 9.36390 -5.39966 -0.51352
C 8.84994 -3.25607 -1.47146
C 7.39617 -3.63472 -1.54700
O 6.64371 -3.45058 -0.57412
O 7.08772 -3.94717 -2.81885
C 5.65342 -4.31899 -2.94663
H 9.36120 3.56354 -2.65489
H 12.52230 4.18269 2.69634
H 12.91092 -2.06016 3.25359
H 8.22617 -1.12839 -3.69010
H 7.97211 1.67659 -3.75807
H 10.24477 -0.16887 -4.36591
H 10.72643 1.44823 -3.81157
H 9.73979 1.32804 -5.23696
H 6.37033 0.77123 -2.23647
H 6.27234 -0.98446 -1.84515
H 6.15218 -0.70329 -4.67605
H 5.35146 0.69657 -4.05630
H 8.97607 5.57493 -2.15814
H 10.05770 6.72408 -1.44489
H 8.45325 6.52229 -0.70206
H 10.46344 7.85684 0.43330
H 10.41943 8.31961 2.23069
H 9.10212 7.40744 1.43946
H 13.35105 2.58442 4.50143
H 14.58488 0.00627 3.67222
H 15.45364 3.23462 3.96714
H 15.04489 2.88133 2.25130
H 15.77891 1.68587 3.19348
H 14.05662 0.62006 6.06303
H 13.56739 -0.99529 5.58735
H 12.05503 1.46234 6.09230
H 11.67343 -0.19984 6.67225
H 11.28847 0.33041 4.97374
H 11.32062 -5.21397 2.28995
H 12.58994 -4.13461 2.95328
H 12.72236 -4.69710 1.23912
H 9.36443 -3.41596 -2.41978
H 5.62052 -5.31322 -3.40283
H 5.17911 -3.49163 -3.50722
H 5.09589 -4.48712 -2.03266

