%nproc=24
%mem=175gb
#p cam-b3lyp/Def2SVP td=(nstates=5)

TDDFT excited states in gaussian

0 1
Mg 0.00000 0.00000 0.00000
C -0.21700 -2.21800 2.80100
C -1.25500 2.44200 2.02600
C -0.24500 1.85000 -2.56400
C 0.14600 -2.82400 -2.03700
N -0.61700 -0.00900 2.12600
C -0.59400 -0.90800 3.10500
C -0.93600 -0.30900 4.50200
C -1.77300 0.96400 4.03200
C -1.15500 1.16800 2.66000
C -3.26300 0.68500 3.86300
C 0.34500 0.11000 5.29900
C 0.12400 0.39700 6.78700
H 1.16800 0.03300 7.73300
N -0.18500 1.96100 -0.15200
C -0.70300 2.80000 0.77700
C -0.62000 4.15600 0.19300
C -0.18700 4.01500 -1.22500
C -0.21400 2.58300 -1.38000
C -0.88700 5.40600 0.97400
C 0.18100 5.01300 -2.27700
O 0.30300 4.69000 -3.50800
C 0.31000 6.41400 -1.83700
N -0.26500 -0.41300 -2.02900
C -0.27900 0.56900 -2.93700
C -0.19600 0.02400 -4.33200
C 0.12400 -1.53300 -4.18000
C 0.08600 -1.63200 -2.63500
C -1.45100 0.20500 -5.19700
C 1.37300 -2.07000 -4.92300
C 2.62600 -1.49000 -4.30600
N 0.15000 -2.14400 0.30300
C 0.17300 -3.13600 -0.68800
C 0.17300 -4.43800 0.00400
C 0.13300 -4.11100 1.35800
C 0.08300 -2.69500 1.50200
C 0.14900 -5.71500 -0.62300
C 0.09600 -4.62900 2.71600
O 0.20800 -5.74700 3.22100
C -0.25500 -3.42800 3.70100
C 0.71700 -3.48200 4.84800
O 1.93100 -3.25500 4.66900
O 0.03800 -3.55600 6.00300
C 0.94300 -3.58300 7.18300
H -1.85900 3.22000 2.49700
H -0.21800 2.45300 -3.47400
H 0.27600 -3.74700 -2.60500
H -1.55400 -0.94900 5.13200
H -1.58500 1.83100 4.66500
H -3.48400 -0.37700 3.96900
H -3.51100 1.02700 2.85800
H -3.85200 1.30100 4.54300
H 0.66900 1.09600 4.96600
H 1.13000 -0.63900 5.18900
H -0.84400 0.02600 7.12500
H 0.06200 1.47700 6.92100
H -1.34400 5.18600 1.93800
H -1.65100 5.96300 0.43200
H 0.00700 6.02000 1.08400
H -0.63500 6.74400 -1.40500
H 0.66500 6.97000 -2.70400
H 1.04800 6.46600 -1.03600
H 0.60800 0.50100 -4.89100
H -0.69200 -2.15600 -4.54700
H -1.26700 0.74000 -6.12900
H -2.20400 0.71400 -4.59600
H -1.96700 -0.72000 -5.45300
H 1.35600 -1.75900 -5.96700
H 1.45200 -3.15700 -4.90200
H 2.71400 -0.52200 -4.79800
H 3.48700 -2.12100 -4.52900
H 2.49500 -1.30300 -3.24000
H 0.86700 -6.33300 -0.08400
H 0.40400 -5.64200 -1.68000
H -0.89100 -5.99900 -0.46300
H -1.28300 -3.58100 4.02800
H 0.69800 -4.47800 7.75500
H 0.83300 -2.61900 7.68000
H 2.00000 -3.75400 6.97600
Mg 13.12834 1.18561 0.99790
C 11.68790 -1.63504 -0.68975
C 11.92632 3.12646 -1.53644
C 14.76252 3.61649 2.21760
C 15.14579 -1.06152 2.73744
N 11.97105 0.69337 -0.82162
C 11.42740 -0.40379 -1.32663
C 10.48964 -0.15762 -2.53888
C 11.10285 1.24041 -3.03725
C 11.67475 1.74239 -1.71301
C 12.24915 1.07800 -4.02161
C 8.98750 -0.00619 -2.11150
C 7.98151 -0.07259 -3.26273
H 6.68737 -0.70428 -3.02062
N 12.92650 3.13952 0.71499
C 12.39583 3.75522 -0.36232
C 12.49714 5.19769 -0.09182
C 13.28019 5.38642 1.15955
C 13.71399 4.02599 1.40676
C 11.81635 6.23403 -0.93796
C 13.59803 6.59382 1.98862
O 14.49362 6.56459 2.90507
C 12.89632 7.83604 1.63366
N 14.86683 1.28746 2.13351
C 15.33391 2.46726 2.57828
C 16.43084 2.27049 3.59732
C 16.43725 0.70515 3.92482
C 15.35518 0.23377 2.92866
C 17.82994 2.70459 3.16089
C 16.29598 0.29776 5.41705
C 14.91656 0.65580 5.92143
N 13.26750 -0.96302 1.17702
C 14.20205 -1.69658 1.94029
C 13.97177 -3.12722 1.65279
C 12.92617 -3.12567 0.71726
C 12.54615 -1.78767 0.42598
C 14.71577 -4.21435 2.19197
C 12.06465 -3.95129 -0.09811
O 11.86828 -5.16112 -0.20532
C 11.30972 -3.01865 -1.14054
C 9.85154 -3.38730 -1.12259
O 9.16298 -3.19303 -0.10536
O 9.46165 -3.70378 -2.37086
C 8.01965 -4.06600 -2.40631
H 11.79197 3.79125 -2.39019
H 15.28729 4.41412 2.74852
H 15.66768 -1.82853 3.31363
H 10.56224 -0.89750 -3.32696
H 10.32350 1.90885 -3.39383
H 12.54085 0.04428 -4.13335
H 13.06740 1.66061 -3.61901
H 11.99232 1.54046 -4.97895
H 8.81439 1.02241 -1.76981
H 8.72925 -0.73060 -1.36372
H 8.43332 -0.46248 -4.18295
H 7.68267 0.94608 -3.52161
H 11.45252 5.80774 -1.88099
H 12.58463 6.95264 -1.24324
H 11.02871 6.76594 -0.40003
H 13.11531 8.09170 0.59967
H 13.18750 8.56358 2.39378
H 11.81689 7.65695 1.69174
H 16.21696 2.81886 4.50651
H 17.37867 0.22795 3.61524
H 18.28619 3.45144 3.83774
H 17.76801 3.09265 2.15287
H 18.55165 1.89663 3.05347
H 17.00589 0.85722 6.03119
H 16.47676 -0.75692 5.59582
H 15.01588 1.71387 6.18162
H 14.66019 0.05731 6.79328
H 14.17285 0.58195 5.11949
H 13.99855 -4.97562 2.46866
H 15.31436 -3.90209 3.04517
H 15.33495 -4.47392 1.32912
H 11.76250 -3.18685 -2.11844
H 7.95138 -5.06220 -2.85421
H 7.51669 -3.23804 -2.94041
H 7.51953 -4.22566 -1.45824

