%nproc=24
%mem=175gb
#p cam-b3lyp/Def2SVP td=(nstates=5)

TDDFT excited states in gaussian

0 1
Mg 13.12862 1.18535 0.99540
C 12.23848 -1.62949 -1.04504
C 12.53620 3.15528 -1.72545
C 14.33437 3.62664 2.62441
C 14.71726 -1.05136 3.14459
N 12.47520 0.70775 -1.06305
C 12.10744 -0.39034 -1.70593
C 11.49338 -0.13892 -3.10924
C 12.16878 1.28546 -3.41558
C 12.37824 1.76995 -1.98237
C 13.52811 1.17524 -4.08597
C 9.92830 -0.03532 -3.06700
C 9.24245 -0.09945 -4.43348
H 7.94838 -0.76890 -4.53202
N 12.94462 3.13979 0.70403
C 12.68002 3.76747 -0.46099
C 12.66739 5.20518 -0.14956
C 13.10883 5.38362 1.26041
C 13.50840 4.02896 1.58497
C 12.18732 6.24401 -1.12105
C 13.17412 6.57853 2.16270
O 13.81432 6.54990 3.27272
C 12.54552 7.81090 1.66509
N 14.52646 1.30361 2.52980
C 14.83258 2.48381 3.09668
C 15.64726 2.29034 4.35336
C 15.61926 0.71831 4.64576
C 14.83342 0.24384 3.40370
C 17.09718 2.76956 4.28656
C 15.12392 0.27212 6.04870
C 13.65229 0.58345 6.19954
N 13.28360 -0.96278 1.16738
C 14.02082 -1.69068 2.12693
C 13.91245 -3.11939 1.76711
C 13.13259 -3.12174 0.60078
C 12.79673 -1.78711 0.24657
C 14.53154 -4.20009 2.45626
C 12.52603 -3.94902 -0.41725
O 12.39902 -5.16048 -0.59032
C 12.02609 -3.01101 -1.59902
C 10.62099 -3.41634 -1.95105
O 9.69569 -3.26361 -1.13428
O 10.56327 -3.71268 -3.26224
C 9.18691 -4.10991 -3.66184
H 12.59826 3.83663 -2.57445
H 14.68644 4.42429 3.28266
H 15.10246 -1.81857 3.81964
H 11.78183 -0.85780 -3.86673
H 11.48271 1.94250 -3.94375
H 13.86945 0.15209 -4.13889
H 14.20268 1.76839 -3.48251
H 13.50343 1.65378 -5.06919
H 9.64478 0.98021 -2.76195
H 9.51427 -0.78355 -2.41942
H 9.92031 -0.45592 -5.21858
H 8.98675 0.91730 -4.74147
H 12.08229 5.83131 -2.13201
H 12.98535 6.98867 -1.21321
H 11.27504 6.74311 -0.78740
H 13.00680 8.09648 0.72268
H 12.61660 8.52720 2.48590
H 11.49143 7.60353 1.44944
H 15.19771 2.81141 5.18972
H 16.62202 0.27230 4.57246
H 17.34818 3.51127 5.06818
H 17.27604 3.17982 3.30156
H 17.84696 1.98268 4.34872
H 15.64174 0.83439 6.82965
H 15.28631 -0.78166 6.24911
H 13.65189 1.63718 6.49403
H 13.20545 -0.04183 6.96987
H 13.13378 0.51013 5.23651
H 13.79134 -4.98543 2.53274
H 14.88962 -3.89335 3.43680
H 15.35326 -4.42349 1.77059
H 12.71254 -3.14452 -2.43600
H 9.26216 -5.09656 -4.12932
H 8.80774 -3.28231 -4.29038
H 8.47192 -4.30453 -2.87104

