%nproc=24
%mem=175gb
#p cam-b3lyp/Def2SVP td=(nstates=5)

TDDFT excited states in gaussian

0 1
Mg 31.52415 2.84137 2.40125
C 33.07295 4.83762 4.94983
C 30.48330 0.74678 4.88397
C 30.53839 0.82934 0.15459
C 33.60886 4.41677 0.09521
N 31.80411 2.89263 4.59470
C 32.35772 3.73250 5.45638
C 32.06410 3.41160 6.94647
C 31.75694 1.84232 6.79849
C 31.28368 1.82175 5.34650
C 32.99855 0.97306 6.90852
C 30.81682 4.19216 7.49146
C 30.65673 4.16664 9.01313
H 30.12473 5.35353 9.67702
N 30.24034 1.33139 2.50308
C 29.92039 0.60765 3.59630
C 28.94709 -0.39778 3.14248
C 28.84302 -0.31435 1.66028
C 29.90858 0.62507 1.37367
C 28.16596 -1.26025 4.09085
C 27.94291 -0.98080 0.66436
O 28.18532 -0.94249 -0.59366
C 26.82134 -1.75805 1.21157
N 32.14578 2.49446 0.44790
C 31.51248 1.59951 -0.33051
C 31.95425 1.71902 -1.76959
C 32.84158 3.04778 -1.83766
C 32.83257 3.43497 -0.34254
C 32.75918 0.54118 -2.31837
C 32.42449 4.11988 -2.88136
C 31.09337 4.72438 -2.49654
N 32.93386 4.47814 2.44323
C 33.71756 4.95662 1.37041
C 34.60569 6.00475 1.91360
C 34.29076 6.04763 3.28016
C 33.29220 5.07956 3.57210
C 35.58197 6.73220 1.17615
C 34.58357 6.68435 4.54410
O 35.27997 7.63525 4.89703
C 33.89847 5.84206 5.70495
C 33.17762 6.80158 6.61172
O 32.20134 7.45083 6.19704
O 33.61981 6.63411 7.87140
C 32.92643 7.55625 8.80985
H 30.30225 -0.09209 5.55658
H 30.15594 0.23578 -0.67901
H 34.21849 5.02328 -0.57797
H 32.90067 3.56506 7.61757
H 30.95634 1.53199 7.46490
H 33.90155 1.56381 6.95023
H 32.99737 0.34551 6.02692
H 32.90921 0.29443 7.76164
H 29.90390 3.65837 7.19752
H 30.82183 5.20753 7.14561
H 31.56667 3.81952 9.51756
H 29.90491 3.41659 9.27043
H 28.57584 -1.21388 5.10733
H 28.32329 -2.29925 3.78167
H 27.09560 -1.04425 4.07239
H 27.20666 -2.53683 1.86540
H 26.24132 -2.08341 0.34578
H 26.20941 -1.09733 1.83577
H 31.10153 1.83179 -2.42780
H 33.88696 2.82671 -2.09873
H 32.30729 0.08596 -3.21984
H 32.86520 -0.19528 -1.53293
H 33.79528 0.76540 -2.56621
H 32.28414 3.65907 -3.86223
H 33.15408 4.91398 -3.00004
H 30.37141 4.00432 -2.89325
H 30.96926 5.70235 -2.95721
H 30.97165 4.74722 -1.40736
H 35.49684 7.76629 1.48258
H 35.43453 6.62104 0.10392
H 36.49431 6.23659 1.51861
H 34.68843 5.30058 6.22682
H 33.70265 8.12731 9.32855
H 32.27314 6.91487 9.43083
H 32.32933 8.35234 8.38070

