%nproc=24
%mem=175gb
#p cam-b3lyp/Def2SVP td=(nstates=5)

TDDFT excited states in gaussian

0 1
Mg 7.87464 0.70871 0.60509
C 8.50667 3.28766 3.01934
C 7.91144 -1.51459 3.19163
C 7.76820 -1.63122 -1.53519
C 9.00871 2.91492 -1.84282
N 8.17890 0.97374 2.77982
C 8.34922 2.00750 3.59017
C 8.27065 1.66018 5.10105
C 8.65832 0.10441 5.01062
C 8.19103 -0.18146 3.58493
C 10.15514 -0.14798 5.08229
C 6.82843 1.85972 5.68602
C 6.74543 1.83762 7.21389
H 5.77999 2.71414 7.87124
N 7.36282 -1.19766 0.81087
C 7.41924 -1.93830 1.93761
C 6.95399 -3.28176 1.55970
C 6.77488 -3.31792 0.08277
C 7.32699 -2.02848 -0.28137
C 6.64810 -4.35059 2.56839
C 6.21292 -4.34846 -0.84910
O 6.37364 -4.26781 -2.11815
C 5.54963 -5.50333 -0.22634
N 8.51934 0.57098 -1.36664
C 8.30331 -0.54270 -2.08843
C 8.60346 -0.31204 -3.55031
C 8.83555 1.26338 -3.69789
C 8.71193 1.67737 -2.21508
C 9.81550 -1.05904 -4.10650
C 7.96599 2.00753 -4.74803
C 6.51786 2.00501 -4.31409
N 8.45089 2.78978 0.53326
C 8.91893 3.50699 -0.58951
C 9.29197 4.85686 -0.11929
C 9.03467 4.82366 1.25954
C 8.55551 3.53708 1.62645
C 9.83888 5.89626 -0.92345
C 9.06950 5.58111 2.48989
O 9.30447 6.75288 2.78225
C 8.84886 4.58103 3.70543
C 7.81798 5.18272 4.62072
O 6.64470 5.33532 4.23765
O 8.33109 5.27669 5.86099
C 7.34204 5.85772 6.80756
H 8.12852 -2.31929 3.89464
H 7.64828 -2.36827 -2.33260
H 9.27811 3.69192 -2.56140
H 8.98343 2.18529 5.72553
H 8.08965 -0.48646 5.72396
H 10.72022 0.77206 5.06335
H 10.39266 -0.75570 4.21898
H 10.39268 -0.76063 5.95669
H 6.22165 0.97550 5.45209
H 6.38780 2.76388 5.31323
H 7.73273 1.93394 7.68176
H 6.39497 0.85150 7.52815
H 7.03259 -4.08814 3.56172
H 7.22366 -5.23676 2.27979
H 5.58805 -4.61161 2.59719
H 6.25220 -6.01359 0.42825
H 5.13559 -6.08348 -1.05330
H 4.73535 -5.13818 0.40945
H 7.76281 -0.60281 -4.16827
H 9.86586 1.49651 -4.00439
H 9.57149 -1.70368 -4.97194
H 10.25200 -1.64391 -3.30780
H 10.64770 -0.42680 -4.41128
H 8.00324 1.48680 -5.70803
H 8.28218 3.03030 -4.92396
H 6.15977 1.02901 -4.65510
H 5.97271 2.81520 -4.79412
H 6.43446 2.02330 -3.22123
H 9.33057 6.80859 -0.64103
H 9.71737 5.68438 -1.98369
H 10.88636 5.85204 -0.61343
H 9.81132 4.45142 4.20187
H 7.81687 6.72768 7.27167
H 7.04634 5.02826 7.47712
H 6.44821 6.30372 6.38732

