%nproc=24
%mem=175gb
#p cam-b3lyp/Def2SVP td=(nstates=5)

TDDFT excited states in gaussian

0 1
Mg 0.00000 0.00000 0.00000
C -0.21700 -2.21800 2.80100
C -1.25500 2.44200 2.02600
C -0.24500 1.85000 -2.56400
C 0.14600 -2.82400 -2.03700
N -0.61700 -0.00900 2.12600
C -0.59400 -0.90800 3.10500
C -0.93600 -0.30900 4.50200
C -1.77300 0.96400 4.03200
C -1.15500 1.16800 2.66000
C -3.26300 0.68500 3.86300
C 0.34500 0.11000 5.29900
C 0.12400 0.39700 6.78700
H 1.16800 0.03300 7.73300
N -0.18500 1.96100 -0.15200
C -0.70300 2.80000 0.77700
C -0.62000 4.15600 0.19300
C -0.18700 4.01500 -1.22500
C -0.21400 2.58300 -1.38000
C -0.88700 5.40600 0.97400
C 0.18100 5.01300 -2.27700
O 0.30300 4.69000 -3.50800
C 0.31000 6.41400 -1.83700
N -0.26500 -0.41300 -2.02900
C -0.27900 0.56900 -2.93700
C -0.19600 0.02400 -4.33200
C 0.12400 -1.53300 -4.18000
C 0.08600 -1.63200 -2.63500
C -1.45100 0.20500 -5.19700
C 1.37300 -2.07000 -4.92300
C 2.62600 -1.49000 -4.30600
N 0.15000 -2.14400 0.30300
C 0.17300 -3.13600 -0.68800
C 0.17300 -4.43800 0.00400
C 0.13300 -4.11100 1.35800
C 0.08300 -2.69500 1.50200
C 0.14900 -5.71500 -0.62300
C 0.09600 -4.62900 2.71600
O 0.20800 -5.74700 3.22100
C -0.25500 -3.42800 3.70100
C 0.71700 -3.48200 4.84800
O 1.93100 -3.25500 4.66900
O 0.03800 -3.55600 6.00300
C 0.94300 -3.58300 7.18300
H -1.85900 3.22000 2.49700
H -0.21800 2.45300 -3.47400
H 0.27600 -3.74700 -2.60500
H -1.55400 -0.94900 5.13200
H -1.58500 1.83100 4.66500
H -3.48400 -0.37700 3.96900
H -3.51100 1.02700 2.85800
H -3.85200 1.30100 4.54300
H 0.66900 1.09600 4.96600
H 1.13000 -0.63900 5.18900
H -0.84400 0.02600 7.12500
H 0.06200 1.47700 6.92100
H -1.34400 5.18600 1.93800
H -1.65100 5.96300 0.43200
H 0.00700 6.02000 1.08400
H -0.63500 6.74400 -1.40500
H 0.66500 6.97000 -2.70400
H 1.04800 6.46600 -1.03600
H 0.60800 0.50100 -4.89100
H -0.69200 -2.15600 -4.54700
H -1.26700 0.74000 -6.12900
H -2.20400 0.71400 -4.59600
H -1.96700 -0.72000 -5.45300
H 1.35600 -1.75900 -5.96700
H 1.45200 -3.15700 -4.90200
H 2.71400 -0.52200 -4.79800
H 3.48700 -2.12100 -4.52900
H 2.49500 -1.30300 -3.24000
H 0.86700 -6.33300 -0.08400
H 0.40400 -5.64200 -1.68000
H -0.89100 -5.99900 -0.46300
H -1.28300 -3.58100 4.02800
H 0.69800 -4.47800 7.75500
H 0.83300 -2.61900 7.68000
H 2.00000 -3.75400 6.97600
Mg 15.76996 1.42429 1.20632
C 14.77809 -0.88917 3.76428
C 13.85762 3.76352 2.78920
C 16.25920 3.35256 -1.26549
C 16.64163 -1.32586 -0.74882
N 14.52643 1.32916 3.03302
C 14.27459 0.41420 3.95702
C 13.50339 0.94555 5.19495
C 12.79688 2.21534 4.51132
C 13.80252 2.48201 3.39318
C 11.45442 1.88879 3.87845
C 14.46442 1.37941 6.35693
C 13.77852 1.61608 7.70425
H 14.49714 1.25697 8.92371
N 15.56507 3.39226 1.05247
C 14.76164 4.18688 1.79027
C 14.95985 5.55004 1.27387
C 15.82140 5.47225 0.06293
C 15.89993 4.03594 -0.11289
C 14.42303 6.76872 1.96675
C 16.45746 6.51785 -0.80215
O 16.96853 6.22935 -1.94163
C 16.38138 7.90409 -0.31837
N 16.16469 1.06783 -0.80353
C 16.38885 2.08415 -1.65487
C 16.92058 1.58187 -2.97599
C 17.23672 0.03055 -2.75003
C 16.72707 -0.12300 -1.30018
C 15.98435 1.74100 -4.17371
C 18.67586 -0.45011 -3.08245
C 19.65988 0.15311 -2.10612
N 15.90430 -0.71216 1.49891
C 16.26569 -1.68342 0.53967
C 16.10028 -3.00637 1.17596
C 15.62841 -2.71155 2.46394
C 15.48899 -1.30515 2.61262
C 16.32949 -4.26455 0.55100
C 15.20643 -3.27081 3.72800
O 15.19303 -4.39959 4.21731
C 14.51681 -2.12246 4.58364
C 15.08719 -2.17339 5.97454
O 16.28707 -1.91549 6.17545
O 14.08141 -2.30376 6.85872
C 14.59616 -2.34779 8.25333
H 13.11122 4.50479 3.07605
H 16.54510 3.97774 -2.11454
H 16.98579 -2.22784 -1.25939
H 12.75341 0.26941 5.58756
H 12.75419 3.05921 5.19500
H 11.25098 0.82831 3.88978
H 11.51285 2.25197 2.86074
H 10.66027 2.46685 4.35960
H 14.83612 2.39221 6.15485
H 15.26140 0.67150 6.47658
H 12.75969 1.21047 7.72499
H 13.64159 2.69168 7.83974
H 13.69116 6.50255 2.73936
H 13.84345 7.32896 1.22508
H 15.21315 7.41313 2.35804
H 15.33874 8.18549 -0.19120
H 16.96833 8.49310 -1.02578
H 16.84416 7.95435 0.67356
H 17.83789 2.09220 -3.24285
H 16.59950 -0.61062 -3.37669
H 16.43172 2.32013 -5.00349
H 15.07045 2.20906 -3.83275
H 15.62046 0.80883 -4.60248
H 18.97130 -0.10262 -4.07549
H 18.78350 -1.52962 -3.07379
H 19.85304 1.14299 -2.53029
H 20.56982 -0.44198 -2.06240
H 19.19856 0.30021 -1.12266
H 16.86374 -4.87501 1.26682
H 16.89071 -4.15247 -0.37433
H 15.29937 -4.58310 0.37029
H 13.44205 -2.30790 4.57486
H 14.21685 -3.26966 8.70494
H 14.28325 -1.39366 8.71753
H 15.66436 -2.46943 8.38969

