%nproc=24
%mem=175gb
#p cam-b3lyp/Def2SVP td=(nstates=5)

TDDFT excited states in gaussian

0 1
Mg 0.00000 0.00000 0.00000
C -0.21700 -2.21800 2.80100
C -1.25500 2.44200 2.02600
C -0.24500 1.85000 -2.56400
C 0.14600 -2.82400 -2.03700
N -0.61700 -0.00900 2.12600
C -0.59400 -0.90800 3.10500
C -0.93600 -0.30900 4.50200
C -1.77300 0.96400 4.03200
C -1.15500 1.16800 2.66000
C -3.26300 0.68500 3.86300
C 0.34500 0.11000 5.29900
C 0.12400 0.39700 6.78700
H 1.16800 0.03300 7.73300
N -0.18500 1.96100 -0.15200
C -0.70300 2.80000 0.77700
C -0.62000 4.15600 0.19300
C -0.18700 4.01500 -1.22500
C -0.21400 2.58300 -1.38000
C -0.88700 5.40600 0.97400
C 0.18100 5.01300 -2.27700
O 0.30300 4.69000 -3.50800
C 0.31000 6.41400 -1.83700
N -0.26500 -0.41300 -2.02900
C -0.27900 0.56900 -2.93700
C -0.19600 0.02400 -4.33200
C 0.12400 -1.53300 -4.18000
C 0.08600 -1.63200 -2.63500
C -1.45100 0.20500 -5.19700
C 1.37300 -2.07000 -4.92300
C 2.62600 -1.49000 -4.30600
N 0.15000 -2.14400 0.30300
C 0.17300 -3.13600 -0.68800
C 0.17300 -4.43800 0.00400
C 0.13300 -4.11100 1.35800
C 0.08300 -2.69500 1.50200
C 0.14900 -5.71500 -0.62300
C 0.09600 -4.62900 2.71600
O 0.20800 -5.74700 3.22100
C -0.25500 -3.42800 3.70100
C 0.71700 -3.48200 4.84800
O 1.93100 -3.25500 4.66900
O 0.03800 -3.55600 6.00300
C 0.94300 -3.58300 7.18300
H -1.85900 3.22000 2.49700
H -0.21800 2.45300 -3.47400
H 0.27600 -3.74700 -2.60500
H -1.55400 -0.94900 5.13200
H -1.58500 1.83100 4.66500
H -3.48400 -0.37700 3.96900
H -3.51100 1.02700 2.85800
H -3.85200 1.30100 4.54300
H 0.66900 1.09600 4.96600
H 1.13000 -0.63900 5.18900
H -0.84400 0.02600 7.12500
H 0.06200 1.47700 6.92100
H -1.34400 5.18600 1.93800
H -1.65100 5.96300 0.43200
H 0.00700 6.02000 1.08400
H -0.63500 6.74400 -1.40500
H 0.66500 6.97000 -2.70400
H 1.04800 6.46600 -1.03600
H 0.60800 0.50100 -4.89100
H -0.69200 -2.15600 -4.54700
H -1.26700 0.74000 -6.12900
H -2.20400 0.71400 -4.59600
H -1.96700 -0.72000 -5.45300
H 1.35600 -1.75900 -5.96700
H 1.45200 -3.15700 -4.90200
H 2.71400 -0.52200 -4.79800
H 3.48700 -2.12100 -4.52900
H 2.49500 -1.30300 -3.24000
H 0.86700 -6.33300 -0.08400
H 0.40400 -5.64200 -1.68000
H -0.89100 -5.99900 -0.46300
H -1.28300 -3.58100 4.02800
H 0.69800 -4.47800 7.75500
H 0.83300 -2.61900 7.68000
H 2.00000 -3.75400 6.97600
Mg 15.77374 1.42095 1.20503
C 14.48933 -0.56906 3.90118
C 15.57679 4.11010 3.29411
C 16.47291 3.27298 -1.27460
C 14.80174 -1.13248 -0.95851
N 15.10419 1.61822 3.30385
C 14.69555 0.78275 4.24690
C 14.57362 1.41634 5.65873
C 14.37921 2.94849 5.21874
C 15.09338 2.90778 3.86930
C 12.92686 3.32622 4.97930
C 15.87505 1.22507 6.51413
C 15.71889 1.54397 8.00264
H 16.46627 0.74298 8.96821
N 16.45426 3.28425 1.14528
C 16.30364 4.23624 2.08991
C 16.96799 5.43720 1.56030
C 17.37982 5.16487 0.15639
C 16.75278 3.87591 -0.05694
C 17.22774 6.65803 2.39428
C 18.19155 5.94244 -0.83491
O 18.22430 5.62386 -2.07599
C 18.87219 7.14266 -0.32729
N 15.46605 1.21380 -0.84064
C 15.91447 2.14138 -1.70462
C 15.82412 1.64881 -3.12926
C 15.44555 0.09854 -3.02464
C 15.28816 -0.02071 -1.49285
C 14.80454 2.36265 -4.01654
C 16.38172 -0.90515 -3.75186
C 17.73499 -0.92951 -3.07848
N 14.98967 -0.58135 1.41499
C 14.62754 -1.46870 0.37790
C 14.03848 -2.66477 1.01416
C 14.07801 -2.37827 2.38706
C 14.63270 -1.08586 2.59079
C 13.51330 -3.79735 0.33037
C 13.76687 -2.87088 3.70964
O 13.36092 -3.93911 4.16551
C 13.90286 -1.66942 4.74134
C 14.70429 -2.15575 5.91765
O 15.89906 -2.47264 5.78084
O 13.99549 -1.96086 7.04459
C 14.75324 -2.41752 8.24004
H 15.34217 5.05296 3.78894
H 16.79729 3.82510 -2.15972
H 14.56444 -2.01339 -1.55881
H 13.71800 1.08320 6.23379
H 14.89047 3.62314 5.90052
H 12.27367 2.46779 5.03008
H 12.89652 3.76681 3.99137
H 12.62402 4.11714 5.67145
H 16.60494 1.99497 6.23260
H 16.26619 0.23325 6.39616
H 14.66582 1.62002 8.29963
H 16.12236 2.54244 8.18781
H 16.66536 6.62918 3.33571
H 16.80612 7.51132 1.85206
H 18.29236 6.83596 2.56039
H 18.13620 7.82618 0.08936
H 19.47253 7.51265 -1.16070
H 19.53109 6.84876 0.49738
H 16.77832 1.74434 -3.63272
H 14.45683 -0.10967 -3.45929
H 15.25117 2.80126 -4.92880
H 14.31526 3.12692 -3.42745
H 13.96588 1.74940 -4.34177
H 16.55351 -0.58441 -4.78228
H 15.98610 -1.91460 -3.79050
H 18.24779 -0.07182 -3.52400
H 18.25594 -1.85903 -3.29903
H 17.64312 -0.73660 -2.00331
H 13.86701 -4.67218 0.85958
H 13.82254 -3.81068 -0.71269
H 12.44150 -3.61070 0.43840
H 12.89464 -1.36892 5.02900
H 14.11824 -3.13802 8.76477
H 15.02984 -1.49717 8.78794
H 15.64719 -3.00660 8.07189

