%nproc=24
%mem=175gb
#p cam-b3lyp/Def2SVP td=(nstates=5)

TDDFT excited states in gaussian

0 1
Mg 0.00000 0.00000 0.00000
C -0.21700 -2.21800 2.80100
C -1.25500 2.44200 2.02600
C -0.24500 1.85000 -2.56400
C 0.14600 -2.82400 -2.03700
N -0.61700 -0.00900 2.12600
C -0.59400 -0.90800 3.10500
C -0.93600 -0.30900 4.50200
C -1.77300 0.96400 4.03200
C -1.15500 1.16800 2.66000
C -3.26300 0.68500 3.86300
C 0.34500 0.11000 5.29900
C 0.12400 0.39700 6.78700
H 1.16800 0.03300 7.73300
N -0.18500 1.96100 -0.15200
C -0.70300 2.80000 0.77700
C -0.62000 4.15600 0.19300
C -0.18700 4.01500 -1.22500
C -0.21400 2.58300 -1.38000
C -0.88700 5.40600 0.97400
C 0.18100 5.01300 -2.27700
O 0.30300 4.69000 -3.50800
C 0.31000 6.41400 -1.83700
N -0.26500 -0.41300 -2.02900
C -0.27900 0.56900 -2.93700
C -0.19600 0.02400 -4.33200
C 0.12400 -1.53300 -4.18000
C 0.08600 -1.63200 -2.63500
C -1.45100 0.20500 -5.19700
C 1.37300 -2.07000 -4.92300
C 2.62600 -1.49000 -4.30600
N 0.15000 -2.14400 0.30300
C 0.17300 -3.13600 -0.68800
C 0.17300 -4.43800 0.00400
C 0.13300 -4.11100 1.35800
C 0.08300 -2.69500 1.50200
C 0.14900 -5.71500 -0.62300
C 0.09600 -4.62900 2.71600
O 0.20800 -5.74700 3.22100
C -0.25500 -3.42800 3.70100
C 0.71700 -3.48200 4.84800
O 1.93100 -3.25500 4.66900
O 0.03800 -3.55600 6.00300
C 0.94300 -3.58300 7.18300
H -1.85900 3.22000 2.49700
H -0.21800 2.45300 -3.47400
H 0.27600 -3.74700 -2.60500
H -1.55400 -0.94900 5.13200
H -1.58500 1.83100 4.66500
H -3.48400 -0.37700 3.96900
H -3.51100 1.02700 2.85800
H -3.85200 1.30100 4.54300
H 0.66900 1.09600 4.96600
H 1.13000 -0.63900 5.18900
H -0.84400 0.02600 7.12500
H 0.06200 1.47700 6.92100
H -1.34400 5.18600 1.93800
H -1.65100 5.96300 0.43200
H 0.00700 6.02000 1.08400
H -0.63500 6.74400 -1.40500
H 0.66500 6.97000 -2.70400
H 1.04800 6.46600 -1.03600
H 0.60800 0.50100 -4.89100
H -0.69200 -2.15600 -4.54700
H -1.26700 0.74000 -6.12900
H -2.20400 0.71400 -4.59600
H -1.96700 -0.72000 -5.45300
H 1.35600 -1.75900 -5.96700
H 1.45200 -3.15700 -4.90200
H 2.71400 -0.52200 -4.79800
H 3.48700 -2.12100 -4.52900
H 2.49500 -1.30300 -3.24000
H 0.86700 -6.33300 -0.08400
H 0.40400 -5.64200 -1.68000
H -0.89100 -5.99900 -0.46300
H -1.28300 -3.58100 4.02800
H 0.69800 -4.47800 7.75500
H 0.83300 -2.61900 7.68000
H 2.00000 -3.75400 6.97600
Mg 15.76526 1.42811 1.20361
C 17.72802 0.52516 4.06916
C 13.10520 1.75192 3.31402
C 13.91215 1.78591 -1.34695
C 18.22508 -0.05008 -0.77374
N 15.56754 1.14844 3.38878
C 16.39546 0.86467 4.38294
C 15.78022 1.02767 5.79874
C 14.23253 0.84604 5.41074
C 14.28907 1.30956 3.95656
C 13.77248 -0.60213 5.43290
C 16.05636 2.44582 6.41079
C 15.75474 2.57084 7.90584
H 16.61139 3.42926 8.71931
N 13.94092 2.19173 1.03859
C 12.99832 2.26274 2.00178
C 11.82639 2.89085 1.37230
C 12.09684 3.03457 -0.08403
C 13.34604 2.30815 -0.19311
C 10.63579 3.36103 2.15640
C 11.34780 3.70285 -1.19694
O 11.64660 3.49986 -2.42671
C 10.19510 4.52846 -0.80821
N 15.92068 0.75595 -0.75761
C 15.00430 1.09786 -1.68026
C 15.46701 0.73192 -3.07036
C 16.99597 0.29061 -2.91197
C 17.13246 0.39727 -1.37725
C 14.68391 -0.38528 -3.75957
C 18.03655 1.02690 -3.79953
C 18.14578 2.47358 -3.37457
N 17.72530 0.58115 1.53372
C 18.57396 -0.00639 0.57005
C 19.74690 -0.54156 1.29132
C 19.48628 -0.24624 2.63793
C 18.22955 0.40758 2.75030
C 20.83752 -1.24138 0.70233
C 19.98363 -0.34841 3.99104
O 21.03582 -0.72794 4.50347
C 18.80900 0.03364 4.99138
C 19.35801 0.99983 6.00508
O 19.73694 2.13239 5.65821
O 19.14405 0.51135 7.24038
C 19.66139 1.43962 8.28081
H 12.15952 1.66111 3.84911
H 13.36353 1.98100 -2.27131
H 19.08150 -0.43812 -1.32931
H 16.07611 0.26848 6.51278
H 13.59830 1.50598 5.99691
H 14.59491 -1.28374 5.59149
H 13.31420 -0.77999 4.46885
H 12.97813 -0.73402 6.17314
H 15.32257 3.15745 6.01094
H 17.06582 2.75366 6.21884
H 15.62666 1.59200 8.38376
H 14.78293 3.05619 8.02439
H 10.65002 2.97138 3.18177
H 9.75180 2.89986 1.70282
H 10.51878 4.44661 2.13416
H 9.47979 3.91653 -0.26384
H 9.84417 4.99359 -1.73145
H 10.53829 5.30387 -0.11425
H 15.41491 1.58713 -3.73294
H 17.14279 -0.76907 -3.16763
H 14.25479 -0.08117 -4.73294
H 13.90429 -0.71998 -3.08822
H 15.24511 -1.30117 -3.93679
H 17.70819 1.03352 -4.84178
H 19.02222 0.57429 -3.77529
H 17.30977 2.94806 -3.89709
H 19.09835 2.89458 -3.68987
H 17.96642 2.58233 -2.29863
H 21.73912 -0.85045 1.15489
H 20.84993 -1.12072 -0.37890
H 20.59480 -2.26546 0.99832
H 18.45911 -0.89009 5.45385
H 20.35515 0.86663 8.90376
H 18.76685 1.85934 8.77817
H 20.29522 2.25566 7.95400

