%nproc=24
%mem=175gb
#p cam-b3lyp/Def2SVP td=(nstates=5)

TDDFT excited states in gaussian

0 1
Mg 0.00000 0.00000 0.00000
C -0.21700 -2.21800 2.80100
C -1.25500 2.44200 2.02600
C -0.24500 1.85000 -2.56400
C 0.14600 -2.82400 -2.03700
N -0.61700 -0.00900 2.12600
C -0.59400 -0.90800 3.10500
C -0.93600 -0.30900 4.50200
C -1.77300 0.96400 4.03200
C -1.15500 1.16800 2.66000
C -3.26300 0.68500 3.86300
C 0.34500 0.11000 5.29900
C 0.12400 0.39700 6.78700
H 1.16800 0.03300 7.73300
N -0.18500 1.96100 -0.15200
C -0.70300 2.80000 0.77700
C -0.62000 4.15600 0.19300
C -0.18700 4.01500 -1.22500
C -0.21400 2.58300 -1.38000
C -0.88700 5.40600 0.97400
C 0.18100 5.01300 -2.27700
O 0.30300 4.69000 -3.50800
C 0.31000 6.41400 -1.83700
N -0.26500 -0.41300 -2.02900
C -0.27900 0.56900 -2.93700
C -0.19600 0.02400 -4.33200
C 0.12400 -1.53300 -4.18000
C 0.08600 -1.63200 -2.63500
C -1.45100 0.20500 -5.19700
C 1.37300 -2.07000 -4.92300
C 2.62600 -1.49000 -4.30600
N 0.15000 -2.14400 0.30300
C 0.17300 -3.13600 -0.68800
C 0.17300 -4.43800 0.00400
C 0.13300 -4.11100 1.35800
C 0.08300 -2.69500 1.50200
C 0.14900 -5.71500 -0.62300
C 0.09600 -4.62900 2.71600
O 0.20800 -5.74700 3.22100
C -0.25500 -3.42800 3.70100
C 0.71700 -3.48200 4.84800
O 1.93100 -3.25500 4.66900
O 0.03800 -3.55600 6.00300
C 0.94300 -3.58300 7.18300
H -1.85900 3.22000 2.49700
H -0.21800 2.45300 -3.47400
H 0.27600 -3.74700 -2.60500
H -1.55400 -0.94900 5.13200
H -1.58500 1.83100 4.66500
H -3.48400 -0.37700 3.96900
H -3.51100 1.02700 2.85800
H -3.85200 1.30100 4.54300
H 0.66900 1.09600 4.96600
H 1.13000 -0.63900 5.18900
H -0.84400 0.02600 7.12500
H 0.06200 1.47700 6.92100
H -1.34400 5.18600 1.93800
H -1.65100 5.96300 0.43200
H 0.00700 6.02000 1.08400
H -0.63500 6.74400 -1.40500
H 0.66500 6.97000 -2.70400
H 1.04800 6.46600 -1.03600
H 0.60800 0.50100 -4.89100
H -0.69200 -2.15600 -4.54700
H -1.26700 0.74000 -6.12900
H -2.20400 0.71400 -4.59600
H -1.96700 -0.72000 -5.45300
H 1.35600 -1.75900 -5.96700
H 1.45200 -3.15700 -4.90200
H 2.71400 -0.52200 -4.79800
H 3.48700 -2.12100 -4.52900
H 2.49500 -1.30300 -3.24000
H 0.86700 -6.33300 -0.08400
H 0.40400 -5.64200 -1.68000
H -0.89100 -5.99900 -0.46300
H -1.28300 -3.58100 4.02800
H 0.69800 -4.47800 7.75500
H 0.83300 -2.61900 7.68000
H 2.00000 -3.75400 6.97600
Mg 7.87294 0.71254 0.59930
C 6.31013 -2.10602 -0.97943
C 6.52725 2.64945 -1.86487
C 9.59705 3.13768 1.70093
C 9.98040 -1.54033 2.22068
N 6.60026 0.21964 -1.14127
C 6.01850 -0.87609 -1.60526
C 5.00810 -0.62918 -2.75751
C 5.59827 0.76197 -3.30089
C 6.25567 1.26636 -2.01788
C 6.67931 0.58657 -4.35442
C 3.53685 -0.46496 -2.23743
C 2.46007 -0.52984 -3.32283
H 1.17943 -1.15110 -2.99654
N 7.66702 2.66644 0.31919
C 7.07389 3.28060 -0.72593
C 7.20181 4.72363 -0.47005
C 8.06323 4.91291 0.72864
C 8.50245 3.55065 0.95538
C 6.47625 5.76063 -1.27728
C 8.44075 6.12208 1.52964
O 9.39195 6.09096 2.38817
C 7.72659 7.36751 1.21282
N 9.68002 0.80758 1.62291
C 10.18215 1.98619 2.03116
C 11.33959 1.78661 2.98031
C 11.35592 0.22289 3.31513
C 10.21020 -0.24565 2.39144
C 12.71142 2.20858 2.45455
C 11.30595 -0.17615 4.81544
C 9.96342 0.19418 5.40355
N 8.00846 -1.43612 0.78082
C 8.98413 -2.17256 1.48779
C 8.72650 -3.60292 1.22297
C 7.62421 -3.59851 0.35497
C 7.23574 -2.25928 0.08099
C 9.49551 -4.69266 1.72016
C 6.70755 -4.42196 -0.40025
O 6.49660 -5.63087 -0.48844
C 5.89496 -3.48910 -1.39817
C 4.43832 -3.84725 -1.28668
O 3.81639 -3.64309 -0.22927
O 3.96860 -4.16707 -2.50629
C 2.52479 -4.51917 -2.44916
H 6.34404 3.31099 -2.71203
H 10.15957 3.93415 2.19357
H 10.53224 -2.30820 2.76704
H 5.02599 -1.37343 -3.54463
H 4.80261 1.43419 -3.61137
H 6.95637 -0.44974 -4.47873
H 7.52518 1.16531 -4.00713
H 6.36597 1.04615 -5.29619
H 3.39256 0.56651 -1.89105
H 3.32119 -1.18383 -1.47105
H 2.85049 -0.92745 -4.26751
H 2.15249 0.48965 -3.56787
H 6.05099 5.33232 -2.19330
H 7.22870 6.47224 -1.63406
H 5.72762 6.30077 -0.69379
H 7.88190 7.61652 0.16576
H 8.06991 8.09668 1.94924
H 6.65175 7.19639 1.33954
H 11.18701 2.34095 3.89820
H 12.27275 -0.26251 2.94958
H 13.21437 2.95548 3.09740
H 12.58890 2.59213 1.45035
H 13.41943 1.39498 2.30633
H 12.05685 0.38124 5.38078
H 11.49042 -1.23120 4.98814
H 10.08610 1.25278 5.65133
H 9.75829 -0.39817 6.29297
H 9.17030 0.12170 4.65032
H 8.79193 -5.44743 2.04542
H 10.14865 -4.38049 2.53240
H 10.05745 -4.96086 0.82152
H 6.28423 -3.66532 -2.40166
H 2.42174 -5.51704 -2.88656
H 1.99490 -3.69028 -2.95503
H 2.08418 -4.67061 -1.47070

