%nproc=24
%mem=175gb
#p cam-b3lyp/Def2SVP td=(nstates=5)

TDDFT excited states in gaussian

0 1
Mg 7.88111 0.71829 0.60471
C 9.97467 0.10152 3.45351
C 5.22596 0.72977 2.74590
C 5.96842 0.81160 -1.92519
C 10.48415 -0.46201 -1.38948
N 7.74531 0.44096 2.79489
C 8.61373 0.27467 3.78106
C 7.99926 0.37533 5.20298
C 6.48227 -0.00350 4.83676
C 6.46336 0.44683 3.37748
C 6.20807 -1.49761 4.87914
C 8.10211 1.82380 5.79741
C 7.80444 1.92703 7.29491
H 8.55580 2.89538 8.08878
N 5.97351 1.24500 0.45566
C 5.04063 1.20815 1.43017
C 3.79190 1.67700 0.80967
C 4.02533 1.83691 -0.65138
C 5.35455 1.27179 -0.76936
C 2.56080 2.00298 1.60436
C 3.18549 2.39317 -1.76108
O 3.49321 2.21527 -2.99254
C 1.94276 3.07199 -1.36570
N 8.09709 0.04861 -1.35163
C 7.13444 0.26228 -2.26573
C 7.62338 -0.05854 -3.65799
C 9.19739 -0.30265 -3.51496
C 9.33710 -0.16221 -1.98325
C 6.97892 -1.27296 -4.32601
C 10.12693 0.54822 -4.42307
C 10.05846 2.00192 -4.01384
N 9.93569 0.12780 0.91788
C 10.84025 -0.35956 -0.05079
C 12.07937 -0.73504 0.66056
C 11.79928 -0.45943 2.00744
C 10.47175 0.03276 2.12952
C 13.24240 -1.29914 0.06451
C 12.32109 -0.48294 3.35498
O 13.41847 -0.72156 3.85753
C 11.11940 -0.23992 4.36654
C 11.55435 0.79902 5.36350
O 11.78398 1.96616 5.00062
O 11.41772 0.30167 6.60621
C 11.82632 1.29934 7.63068
H 4.30542 0.52713 3.29399
H 5.38902 0.92574 -2.84428
H 11.37606 -0.74582 -1.95217
H 8.39639 -0.33254 5.92061
H 5.77697 0.57828 5.42451
H 7.11139 -2.06877 5.03384
H 5.76468 -1.74255 3.92287
H 5.44518 -1.71969 5.63080
H 7.28017 2.43311 5.40003
H 9.06262 2.25368 5.58944
H 7.80586 0.94536 7.78407
H 6.78080 2.28791 7.42117
H 2.63569 1.62992 2.63325
H 1.73656 1.42938 1.16677
H 2.30810 3.06497 1.57291
H 1.31632 2.38138 -0.80616
H 1.52556 3.47884 -2.28890
H 2.19381 3.89220 -0.68391
H 7.45662 0.77576 -4.32825
H 9.47320 -1.33838 -3.76202
H 6.50380 -1.03623 -5.29672
H 6.25532 -1.69517 -3.64140
H 7.64864 -2.11315 -4.50139
H 9.78833 0.50170 -5.46102
H 11.16186 0.22319 -4.40706
H 9.16349 2.36176 -4.53021
H 10.94689 2.53550 -4.34553
H 9.87929 2.09957 -2.93681
H 14.09290 -0.79303 0.50154
H 13.22708 -1.19022 -1.01792
H 13.13367 -2.34215 0.37369
H 10.89368 -1.19492 4.84257
H 12.59370 0.82507 8.25027
H 10.89193 1.60913 8.13536
H 12.34880 2.18468 7.28770

