%nproc=24
%mem=175gb
#p cam-b3lyp/Def2SVP td=(nstates=5)

TDDFT excited states in gaussian

0 1
Mg 0.00000 0.00000 0.00000
C -0.21700 -2.21800 2.80100
C -1.25500 2.44200 2.02600
C -0.24500 1.85000 -2.56400
C 0.14600 -2.82400 -2.03700
N -0.61700 -0.00900 2.12600
C -0.59400 -0.90800 3.10500
C -0.93600 -0.30900 4.50200
C -1.77300 0.96400 4.03200
C -1.15500 1.16800 2.66000
C -3.26300 0.68500 3.86300
C 0.34500 0.11000 5.29900
C 0.12400 0.39700 6.78700
H 1.16800 0.03300 7.73300
N -0.18500 1.96100 -0.15200
C -0.70300 2.80000 0.77700
C -0.62000 4.15600 0.19300
C -0.18700 4.01500 -1.22500
C -0.21400 2.58300 -1.38000
C -0.88700 5.40600 0.97400
C 0.18100 5.01300 -2.27700
O 0.30300 4.69000 -3.50800
C 0.31000 6.41400 -1.83700
N -0.26500 -0.41300 -2.02900
C -0.27900 0.56900 -2.93700
C -0.19600 0.02400 -4.33200
C 0.12400 -1.53300 -4.18000
C 0.08600 -1.63200 -2.63500
C -1.45100 0.20500 -5.19700
C 1.37300 -2.07000 -4.92300
C 2.62600 -1.49000 -4.30600
N 0.15000 -2.14400 0.30300
C 0.17300 -3.13600 -0.68800
C 0.17300 -4.43800 0.00400
C 0.13300 -4.11100 1.35800
C 0.08300 -2.69500 1.50200
C 0.14900 -5.71500 -0.62300
C 0.09600 -4.62900 2.71600
O 0.20800 -5.74700 3.22100
C -0.25500 -3.42800 3.70100
C 0.71700 -3.48200 4.84800
O 1.93100 -3.25500 4.66900
O 0.03800 -3.55600 6.00300
C 0.94300 -3.58300 7.18300
H -1.85900 3.22000 2.49700
H -0.21800 2.45300 -3.47400
H 0.27600 -3.74700 -2.60500
H -1.55400 -0.94900 5.13200
H -1.58500 1.83100 4.66500
H -3.48400 -0.37700 3.96900
H -3.51100 1.02700 2.85800
H -3.85200 1.30100 4.54300
H 0.66900 1.09600 4.96600
H 1.13000 -0.63900 5.18900
H -0.84400 0.02600 7.12500
H 0.06200 1.47700 6.92100
H -1.34400 5.18600 1.93800
H -1.65100 5.96300 0.43200
H 0.00700 6.02000 1.08400
H -0.63500 6.74400 -1.40500
H 0.66500 6.97000 -2.70400
H 1.04800 6.46600 -1.03600
H 0.60800 0.50100 -4.89100
H -0.69200 -2.15600 -4.54700
H -1.26700 0.74000 -6.12900
H -2.20400 0.71400 -4.59600
H -1.96700 -0.72000 -5.45300
H 1.35600 -1.75900 -5.96700
H 1.45200 -3.15700 -4.90200
H 2.71400 -0.52200 -4.79800
H 3.48700 -2.12100 -4.52900
H 2.49500 -1.30300 -3.24000
H 0.86700 -6.33300 -0.08400
H 0.40400 -5.64200 -1.68000
H -0.89100 -5.99900 -0.46300
H -1.28300 -3.58100 4.02800
H 0.69800 -4.47800 7.75500
H 0.83300 -2.61900 7.68000
H 2.00000 -3.75400 6.97600
Mg 10.51807 0.95115 0.80448
C 10.62199 -1.24174 3.64341
C 9.55768 3.42957 2.94216
C 9.98156 2.78927 -1.72552
C 10.36312 -1.88924 -1.20895
N 10.17006 0.96873 2.98870
C 10.30065 0.09162 3.97256
C 10.15292 0.69434 5.39539
C 9.27294 1.98414 5.02000
C 9.71507 2.16801 3.56969
C 7.77707 1.71667 5.03306
C 11.53413 1.10270 6.01791
C 11.49852 1.40923 7.51675
H 12.65396 1.04077 8.33018
N 10.34487 2.92311 0.66328
C 9.96502 3.77831 1.63572
C 9.97753 5.11562 1.02287
C 10.23629 4.96133 -0.43451
C 10.17562 3.51903 -0.56176
C 9.83613 6.37837 1.82218
C 10.48315 5.94915 -1.53428
O 10.44741 5.60552 -2.76857
C 10.67545 7.34877 -1.12737
N 10.00319 0.52503 -1.16419
C 9.88257 1.50659 -2.07518
C 9.77958 0.94404 -3.47279
C 10.10048 -0.61639 -3.33255
C 10.25250 -0.70658 -1.79823
C 8.42891 1.12538 -4.16503
C 11.24007 -1.18333 -4.22283
C 12.56951 -0.61167 -3.78559
N 10.68006 -1.18175 1.10872
C 10.55906 -2.19432 0.13192
C 10.62892 -3.49040 0.83741
C 10.76369 -3.13902 2.18902
C 10.75659 -1.72390 2.31896
C 10.51980 -4.77402 0.23200
C 10.89966 -3.64350 3.53650
O 11.05182 -4.75767 4.03572
C 10.68687 -2.43862 4.55108
C 11.79364 -2.48717 5.56853
O 12.97370 -2.29083 5.22864
O 11.25696 -2.54064 6.80121
C 12.31533 -2.57914 7.84533
H 9.03486 4.21747 3.48508
H 9.90228 3.37707 -2.64296
H 10.42070 -2.82085 -1.77592
H 9.61613 0.07014 6.09966
H 9.55932 2.84537 5.61802
H 7.55627 0.66955 5.17779
H 7.40998 2.05136 4.07167
H 7.28757 2.34897 5.77933
H 11.82369 2.08835 5.63139
H 12.27739 0.35515 5.81952
H 10.57082 1.06086 7.98680
H 11.47501 2.49369 7.64870
H 9.49398 6.17160 2.84374
H 9.01810 6.95152 1.37253
H 10.74240 6.98765 1.81101
H 9.79871 7.69005 -0.58211
H 10.92720 7.88735 -2.04303
H 11.51878 7.39750 -0.42949
H 10.51469 1.39657 -4.12696
H 9.23209 -1.23653 -3.59929
H 8.50195 1.65880 -5.13157
H 7.76707 1.65108 -3.48964
H 7.88044 0.20452 -4.35582
H 11.09704 -0.87672 -5.26191
H 11.29847 -2.26660 -4.21183
H 12.60209 0.35554 -4.29601
H 13.38689 -1.25465 -4.10576
H 12.57807 -0.41569 -2.70709
H 11.28386 -5.39544 0.67981
H 10.63653 -4.71538 -0.84815
H 9.49937 -5.03974 0.52076
H 9.70470 -2.56486 5.00823
H 12.12894 -3.46758 8.45657
H 12.26824 -1.59831 8.35475
H 13.33390 -2.75598 7.52023

