%nproc=24
%mem=175gb
#p cam-b3lyp/Def2SVP td=(nstates=5)

TDDFT excited states in gaussian

0 1
Mg 10.51786 0.94327 0.80581
C 10.67470 -2.58976 0.19579
C 9.46177 0.20013 3.96286
C 9.93828 4.03350 1.23244
C 10.47034 1.39717 -2.64925
N 10.15461 -0.98354 1.82937
C 10.30734 -2.26172 1.51748
C 10.13014 -3.24024 2.70939
C 9.21069 -2.31465 3.64575
C 9.65638 -0.94204 3.14576
C 7.72440 -2.46502 3.36707
C 11.49287 -3.58732 3.40548
C 11.43698 -4.77022 4.37470
H 12.59837 -5.65073 4.46598
N 10.28071 1.98666 2.47723
C 9.86627 1.52211 3.67461
C 9.83885 2.68825 4.57101
C 10.11247 3.90761 3.76291
C 10.10025 3.34659 2.42679
C 9.65046 2.56921 6.05551
C 10.33411 5.34349 4.13076
O 10.31812 6.27443 3.24990
C 10.47739 5.63850 5.56392
N 10.03073 2.48074 -0.50615
C 9.88402 3.74331 -0.06762
C 9.80914 4.71592 -1.22036
C 10.18035 3.86678 -2.52373
C 10.32481 2.46914 -1.88253
C 8.45797 5.40010 -1.42679
C 11.34404 4.40029 -3.40342
C 12.65090 4.29279 -2.65114
N 10.74801 -0.31952 -0.93214
C 10.66710 0.07077 -2.28684
C 10.77485 -1.15728 -3.10090
C 10.88876 -2.18745 -2.15523
C 10.83413 -1.64212 -0.84408
C 10.71223 -1.22182 -4.52147
C 11.03212 -3.61330 -1.96792
O 11.21753 -4.57327 -2.71480
C 10.77282 -3.95039 -0.43641
C 11.87364 -4.86252 0.03127
O 13.04887 -4.45925 0.08434
O 11.33064 -5.98269 0.54189
C 12.38257 -6.91418 1.02932
H 8.90957 0.08272 4.89570
H 9.84591 5.11842 1.32128
H 10.56247 1.46445 -3.73537
H 9.60944 -4.15939 2.46899
H 9.46445 -2.43901 4.69527
H 7.53727 -3.08369 2.50198
H 7.35303 -1.46202 3.20238
H 7.20925 -2.83458 4.25835
H 11.75240 -2.78285 4.10563
H 12.26170 -3.75371 2.67621
H 10.51808 -5.35718 4.25614
H 11.37682 -4.38112 5.39401
H 9.30837 1.56604 6.33842
H 8.81706 3.22666 6.32581
H 10.53620 2.87187 6.61812
H 9.58618 5.30729 6.09166
H 10.71747 6.70198 5.62078
H 11.31389 5.05192 5.95992
H 10.53336 5.51252 -1.10189
H 9.33471 3.80518 -3.22439
H 8.51996 6.50451 -1.40400
H 7.77457 5.04187 -0.66838
H 7.94147 5.13402 -2.34746
H 11.19805 5.46099 -3.62194
H 11.43804 3.88565 -4.35384
H 12.65506 5.19583 -2.03340
H 13.49120 4.28358 -3.34241
H 12.64565 3.43047 -1.97436
H 11.49330 -1.90068 -4.83703
H 10.83432 -0.23807 -4.96992
H 9.69918 -1.61076 -4.65457
H 9.79226 -4.42281 -0.36641
H 12.22141 -7.87107 0.52328
H 12.29971 -6.90749 2.13242
H 13.40860 -6.69963 0.75424

