%nproc=24
%mem=175gb
#p cam-b3lyp/Def2SVP td=(nstates=5)

TDDFT excited states in gaussian

0 1
Mg 31.53935 2.83763 2.40338
C 31.63136 -0.73788 2.69715
C 30.40421 2.92325 5.61877
C 31.01881 5.94544 2.03191
C 31.57103 2.41534 -1.05587
N 31.11374 1.23345 3.86547
C 31.24481 -0.08441 3.88585
C 31.02246 -0.73142 5.27922
C 30.10480 0.41330 5.93222
C 30.59023 1.61027 5.11718
C 28.62147 0.22207 5.66295
C 32.36306 -0.91563 6.07349
C 32.26198 -1.81807 7.30522
H 33.40184 -2.66649 7.64189
N 31.29152 4.26892 3.75562
C 30.84313 4.12472 5.02031
C 30.82316 5.47800 5.59685
C 31.13944 6.45245 4.51743
C 31.14179 5.57592 3.36340
C 30.60249 5.73637 7.05903
C 31.38489 7.93094 4.52124
O 31.40686 8.61265 3.43605
C 31.50580 8.57203 5.83876
N 31.11224 4.00654 0.73797
C 30.98432 5.34080 0.84424
C 30.95379 5.99592 -0.51601
C 31.33246 4.84243 -1.55699
C 31.43355 3.64697 -0.58434
C 29.62226 6.62857 -0.91994
C 32.52491 5.12063 -2.51269
C 33.81378 5.18331 -1.72510
N 31.77673 1.17742 1.04124
C 31.73153 1.21842 -0.36956
C 31.82880 -0.17555 -0.84896
C 31.90124 -0.93872 0.32612
C 31.83222 -0.08254 1.45824
C 31.79328 -0.59165 -2.20974
C 32.00970 -2.27478 0.86636
O 32.18909 -3.39366 0.38712
C 31.71246 -2.21465 2.42662
C 32.78354 -2.99876 3.13407
O 33.96598 -2.61397 3.11416
O 32.20612 -3.94710 3.89407
C 33.22752 -4.74422 4.62425
H 29.83099 3.05133 6.53741
H 30.94835 7.01953 1.84524
H 31.68636 2.20786 -2.12185
H 30.48677 -1.67298 5.26259
H 30.33469 0.55081 6.98560
H 28.43829 -0.58987 4.97496
H 28.27543 1.15805 5.24433
H 28.08062 0.09506 6.60512
H 32.62597 0.03387 6.55730
H 33.14255 -1.27116 5.42804
H 31.33307 -2.40117 7.31388
H 32.18989 -1.18591 8.19359
H 30.23301 4.84123 7.57441
H 29.77836 6.45381 7.13616
H 31.48316 6.15560 7.55029
H 30.59719 8.39745 6.41007
H 31.76782 9.61203 5.63476
H 32.32121 8.08950 6.38912
H 31.69268 6.78510 -0.58183
H 30.49990 4.62150 -2.24100
H 29.70783 7.70255 -1.17157
H 28.91615 6.48207 -0.11342
H 29.11865 6.14943 -1.75780
H 32.40649 6.09541 -2.99221
H 32.62672 4.38358 -3.30223
H 33.82522 6.21178 -1.35200
H 34.66737 4.98830 -2.37117
H 33.77617 4.51745 -0.85513
H 32.56555 -1.34028 -2.32665
H 31.94574 0.24690 -2.88602
H 30.77487 -0.98514 -2.26685
H 30.72063 -2.63879 2.58774
H 33.05573 -5.79442 4.36880
H 33.12272 -4.46103 5.68847
H 34.26330 -4.62168 4.32998

