%nproc=24
%mem=175gb
#p cam-b3lyp/Def2SVP td=(nstates=5)

TDDFT excited states in gaussian

0 1
Mg 0.00000 0.00000 0.00000
C -0.21700 -2.21800 2.80100
C -1.25500 2.44200 2.02600
C -0.24500 1.85000 -2.56400
C 0.14600 -2.82400 -2.03700
N -0.61700 -0.00900 2.12600
C -0.59400 -0.90800 3.10500
C -0.93600 -0.30900 4.50200
C -1.77300 0.96400 4.03200
C -1.15500 1.16800 2.66000
C -3.26300 0.68500 3.86300
C 0.34500 0.11000 5.29900
C 0.12400 0.39700 6.78700
H 1.16800 0.03300 7.73300
N -0.18500 1.96100 -0.15200
C -0.70300 2.80000 0.77700
C -0.62000 4.15600 0.19300
C -0.18700 4.01500 -1.22500
C -0.21400 2.58300 -1.38000
C -0.88700 5.40600 0.97400
C 0.18100 5.01300 -2.27700
O 0.30300 4.69000 -3.50800
C 0.31000 6.41400 -1.83700
N -0.26500 -0.41300 -2.02900
C -0.27900 0.56900 -2.93700
C -0.19600 0.02400 -4.33200
C 0.12400 -1.53300 -4.18000
C 0.08600 -1.63200 -2.63500
C -1.45100 0.20500 -5.19700
C 1.37300 -2.07000 -4.92300
C 2.62600 -1.49000 -4.30600
N 0.15000 -2.14400 0.30300
C 0.17300 -3.13600 -0.68800
C 0.17300 -4.43800 0.00400
C 0.13300 -4.11100 1.35800
C 0.08300 -2.69500 1.50200
C 0.14900 -5.71500 -0.62300
C 0.09600 -4.62900 2.71600
O 0.20800 -5.74700 3.22100
C -0.25500 -3.42800 3.70100
C 0.71700 -3.48200 4.84800
O 1.93100 -3.25500 4.66900
O 0.03800 -3.55600 6.00300
C 0.94300 -3.58300 7.18300
H -1.85900 3.22000 2.49700
H -0.21800 2.45300 -3.47400
H 0.27600 -3.74700 -2.60500
H -1.55400 -0.94900 5.13200
H -1.58500 1.83100 4.66500
H -3.48400 -0.37700 3.96900
H -3.51100 1.02700 2.85800
H -3.85200 1.30100 4.54300
H 0.66900 1.09600 4.96600
H 1.13000 -0.63900 5.18900
H -0.84400 0.02600 7.12500
H 0.06200 1.47700 6.92100
H -1.34400 5.18600 1.93800
H -1.65100 5.96300 0.43200
H 0.00700 6.02000 1.08400
H -0.63500 6.74400 -1.40500
H 0.66500 6.97000 -2.70400
H 1.04800 6.46600 -1.03600
H 0.60800 0.50100 -4.89100
H -0.69200 -2.15600 -4.54700
H -1.26700 0.74000 -6.12900
H -2.20400 0.71400 -4.59600
H -1.96700 -0.72000 -5.45300
H 1.35600 -1.75900 -5.96700
H 1.45200 -3.15700 -4.90200
H 2.71400 -0.52200 -4.79800
H 3.48700 -2.12100 -4.52900
H 2.49500 -1.30300 -3.24000
H 0.86700 -6.33300 -0.08400
H 0.40400 -5.64200 -1.68000
H -0.89100 -5.99900 -0.46300
H -1.28300 -3.58100 4.02800
H 0.69800 -4.47800 7.75500
H 0.83300 -2.61900 7.68000
H 2.00000 -3.75400 6.97600
Mg 13.14665 1.17675 0.99489
C 13.14815 1.83167 -2.53358
C 12.61679 -2.10577 0.23405
C 12.69139 0.63609 4.08809
C 12.53465 4.57260 1.48420
N 12.92939 0.12211 -0.93715
C 13.00951 0.46489 -2.21403
C 13.01759 -0.73230 -3.20208
C 12.27957 -1.81515 -2.27385
C 12.65658 -1.25890 -0.90231
C 10.76560 -1.78535 -2.40164
C 14.47145 -1.19034 -3.57424
C 14.55928 -2.14624 -4.76601
H 15.70663 -2.03706 -5.66275
N 13.20485 -0.51890 2.02443
C 12.98749 -1.76474 1.55338
C 13.12604 -2.66230 2.71068
C 13.28012 -1.82952 3.93438
C 13.03864 -0.50958 3.38707
C 13.18421 -4.15654 2.57918
C 13.58077 -2.16669 5.36341
O 13.43296 -1.30788 6.30332
C 13.96362 -3.55855 5.64202
N 12.47186 2.37796 2.55185
C 12.41842 1.91141 3.81177
C 12.16816 3.02827 4.79686
C 12.30594 4.38165 3.95605
C 12.53388 3.78408 2.55022
C 10.81171 3.00273 5.50098
C 13.31573 5.43778 4.48290
C 14.72736 4.91321 4.35046
N 13.06730 2.93854 -0.25325
C 12.76907 4.25806 0.15172
C 12.72244 5.08821 -1.06939
C 12.97606 4.18249 -2.11046
C 13.14726 2.87621 -1.57771
C 12.42461 6.47925 -1.11876
C 13.12737 4.03256 -3.53991
O 13.17240 4.80724 -4.49468
C 13.12018 2.48191 -3.88895
C 14.26963 2.21011 -4.82030
O 15.44326 2.34930 -4.43323
O 13.80213 1.62529 -5.93825
C 14.90636 1.32606 -6.88850
H 12.22493 -3.11624 0.11458
H 12.63104 0.52478 5.17319
H 12.44672 5.65842 1.56120
H 12.45075 -0.57435 -4.11177
H 12.70167 -2.80716 -2.41215
H 10.42874 -0.95845 -3.00902
H 10.38695 -1.69223 -1.39219
H 10.39967 -2.74676 -2.77329
H 14.85514 -1.84404 -2.78039
H 15.10644 -0.34253 -3.74346
H 13.62487 -2.17698 -5.33948
H 14.67442 -3.16442 -4.38644
H 12.87888 -4.48442 1.57785
H 12.41685 -4.56624 3.24489
H 14.15523 -4.56699 2.86437
H 13.16726 -4.22404 5.31737
H 14.22549 -3.58310 6.70159
H 14.84536 -3.80598 5.04042
H 12.91369 3.02522 5.58253
H 11.35518 4.93302 3.91277
H 10.89293 2.98197 6.60418
H 10.25805 2.14440 5.14423
H 10.14608 3.82716 5.25108
H 13.15128 5.62088 5.54760
H 13.24352 6.39460 3.97666
H 14.84703 4.29772 5.24709
H 15.44142 5.73417 4.33707
H 14.82146 4.25161 3.48151
H 13.13257 6.92507 -1.80472
H 12.48531 6.93409 -0.13225
H 11.39787 6.44572 -1.49284
H 12.15785 2.25412 -4.34898
H 14.64955 1.80581 -7.83801
H 15.00733 0.22445 -6.89183
H 15.87577 1.76562 -6.68483

