%nproc=24
%mem=175gb
#p cam-b3lyp/Def2SVP td=(nstates=5)

TDDFT excited states in gaussian

0 1
Mg 0.00000 0.00000 0.00000
C -0.21700 -2.21800 2.80100
C -1.25500 2.44200 2.02600
C -0.24500 1.85000 -2.56400
C 0.14600 -2.82400 -2.03700
N -0.61700 -0.00900 2.12600
C -0.59400 -0.90800 3.10500
C -0.93600 -0.30900 4.50200
C -1.77300 0.96400 4.03200
C -1.15500 1.16800 2.66000
C -3.26300 0.68500 3.86300
C 0.34500 0.11000 5.29900
C 0.12400 0.39700 6.78700
H 1.16800 0.03300 7.73300
N -0.18500 1.96100 -0.15200
C -0.70300 2.80000 0.77700
C -0.62000 4.15600 0.19300
C -0.18700 4.01500 -1.22500
C -0.21400 2.58300 -1.38000
C -0.88700 5.40600 0.97400
C 0.18100 5.01300 -2.27700
O 0.30300 4.69000 -3.50800
C 0.31000 6.41400 -1.83700
N -0.26500 -0.41300 -2.02900
C -0.27900 0.56900 -2.93700
C -0.19600 0.02400 -4.33200
C 0.12400 -1.53300 -4.18000
C 0.08600 -1.63200 -2.63500
C -1.45100 0.20500 -5.19700
C 1.37300 -2.07000 -4.92300
C 2.62600 -1.49000 -4.30600
N 0.15000 -2.14400 0.30300
C 0.17300 -3.13600 -0.68800
C 0.17300 -4.43800 0.00400
C 0.13300 -4.11100 1.35800
C 0.08300 -2.69500 1.50200
C 0.14900 -5.71500 -0.62300
C 0.09600 -4.62900 2.71600
O 0.20800 -5.74700 3.22100
C -0.25500 -3.42800 3.70100
C 0.71700 -3.48200 4.84800
O 1.93100 -3.25500 4.66900
O 0.03800 -3.55600 6.00300
C 0.94300 -3.58300 7.18300
H -1.85900 3.22000 2.49700
H -0.21800 2.45300 -3.47400
H 0.27600 -3.74700 -2.60500
H -1.55400 -0.94900 5.13200
H -1.58500 1.83100 4.66500
H -3.48400 -0.37700 3.96900
H -3.51100 1.02700 2.85800
H -3.85200 1.30100 4.54300
H 0.66900 1.09600 4.96600
H 1.13000 -0.63900 5.18900
H -0.84400 0.02600 7.12500
H 0.06200 1.47700 6.92100
H -1.34400 5.18600 1.93800
H -1.65100 5.96300 0.43200
H 0.00700 6.02000 1.08400
H -0.63500 6.74400 -1.40500
H 0.66500 6.97000 -2.70400
H 1.04800 6.46600 -1.03600
H 0.60800 0.50100 -4.89100
H -0.69200 -2.15600 -4.54700
H -1.26700 0.74000 -6.12900
H -2.20400 0.71400 -4.59600
H -1.96700 -0.72000 -5.45300
H 1.35600 -1.75900 -5.96700
H 1.45200 -3.15700 -4.90200
H 2.71400 -0.52200 -4.79800
H 3.48700 -2.12100 -4.52900
H 2.49500 -1.30300 -3.24000
H 0.86700 -6.33300 -0.08400
H 0.40400 -5.64200 -1.68000
H -0.89100 -5.99900 -0.46300
H -1.28300 -3.58100 4.02800
H 0.69800 -4.47800 7.75500
H 0.83300 -2.61900 7.68000
H 2.00000 -3.75400 6.97600
Mg 7.87668 0.71584 0.60457
C 10.04575 1.64082 3.30986
C 5.81583 -0.68548 2.93348
C 6.17520 -0.50372 -1.77978
C 10.59067 1.15334 -1.53752
N 8.02034 0.56227 2.80639
C 8.85927 1.00485 3.73087
C 8.36250 0.82305 5.19022
C 7.34719 -0.39741 4.94834
C 7.00666 -0.14493 3.48104
C 8.00869 -1.76119 5.05731
C 7.61575 2.09309 5.73003
C 7.37610 2.10432 7.24138
H 7.44374 3.38083 7.94736
N 6.02126 0.01201 0.57959
C 5.33039 -0.49814 1.62062
C 4.02126 -0.89453 1.07913
C 4.05544 -0.72857 -0.39938
C 5.45602 -0.41321 -0.59693
C 2.86853 -1.29904 1.95149
C 3.00457 -0.84810 -1.46125
O 3.30725 -0.89550 -2.70583
C 1.61808 -1.00199 -0.99709
N 8.36564 0.16813 -1.34050
C 7.42571 -0.28654 -2.18769
C 7.95226 -0.35402 -3.60140
C 9.37172 0.38185 -3.56675
C 9.46433 0.68197 -2.05455
C 8.12110 -1.75782 -4.18210
C 9.58265 1.55156 -4.56673
C 8.68705 2.71267 -4.19913
N 9.89498 1.46563 0.78435
C 10.87233 1.53649 -0.23243
C 12.12238 2.00883 0.39741
C 11.78909 2.15919 1.75196
C 10.43304 1.78623 1.95575
C 13.36873 2.19483 -0.26451
C 12.27905 2.53846 3.05764
O 13.32552 3.02384 3.48549
C 11.20785 2.09908 4.14660
C 10.98695 3.26091 5.07605
O 10.46916 4.31272 4.66107
O 11.22086 2.86443 6.34035
C 11.00418 3.97937 7.30045
H 5.21520 -1.35138 3.55372
H 5.60289 -0.81429 -2.65698
H 11.45442 1.40884 -2.15504
H 9.12960 0.53376 5.89849
H 6.45931 -0.30128 5.56784
H 9.08045 -1.68182 5.16303
H 7.75629 -2.28436 4.14427
H 7.55503 -2.33639 5.86951
H 6.57721 2.07562 5.37524
H 8.12857 2.98910 5.43881
H 7.97608 1.34635 7.75951
H 6.34277 1.80390 7.43112
H 3.19104 -1.48580 2.98324
H 2.52395 -2.27532 1.59370
H 2.03724 -0.59228 1.90557
H 1.54286 -1.88846 -0.37181
H 1.00385 -0.98149 -1.89941
H 1.36489 -0.14612 -0.36148
H 7.29838 0.17566 -4.28331
H 10.19476 -0.30922 -3.80096
H 7.55851 -1.91183 -5.12224
H 7.81438 -2.47608 -3.43339
H 9.14953 -2.05516 -4.37988
H 9.29445 1.24440 -5.57507
H 10.60977 1.89728 -4.61661
H 7.73182 2.44288 -4.65939
H 9.07551 3.64165 -4.61162
H 8.52905 2.76012 -3.11542
H 13.77426 3.13200 0.09291
H 13.24782 2.19967 -1.34577
H 13.90865 1.31043 0.08420
H 11.60835 1.22853 4.66748
H 11.92818 4.08905 7.87653
H 10.08847 3.71596 7.86244
H 10.88957 4.97685 6.89259

