%nproc=24
%mem=175gb
#p cam-b3lyp/Def2SVP td=(nstates=5)

TDDFT excited states in gaussian

0 1
Mg 0.00000 0.00000 0.00000
C -0.21700 -2.21800 2.80100
C -1.25500 2.44200 2.02600
C -0.24500 1.85000 -2.56400
C 0.14600 -2.82400 -2.03700
N -0.61700 -0.00900 2.12600
C -0.59400 -0.90800 3.10500
C -0.93600 -0.30900 4.50200
C -1.77300 0.96400 4.03200
C -1.15500 1.16800 2.66000
C -3.26300 0.68500 3.86300
C 0.34500 0.11000 5.29900
C 0.12400 0.39700 6.78700
H 1.16800 0.03300 7.73300
N -0.18500 1.96100 -0.15200
C -0.70300 2.80000 0.77700
C -0.62000 4.15600 0.19300
C -0.18700 4.01500 -1.22500
C -0.21400 2.58300 -1.38000
C -0.88700 5.40600 0.97400
C 0.18100 5.01300 -2.27700
O 0.30300 4.69000 -3.50800
C 0.31000 6.41400 -1.83700
N -0.26500 -0.41300 -2.02900
C -0.27900 0.56900 -2.93700
C -0.19600 0.02400 -4.33200
C 0.12400 -1.53300 -4.18000
C 0.08600 -1.63200 -2.63500
C -1.45100 0.20500 -5.19700
C 1.37300 -2.07000 -4.92300
C 2.62600 -1.49000 -4.30600
N 0.15000 -2.14400 0.30300
C 0.17300 -3.13600 -0.68800
C 0.17300 -4.43800 0.00400
C 0.13300 -4.11100 1.35800
C 0.08300 -2.69500 1.50200
C 0.14900 -5.71500 -0.62300
C 0.09600 -4.62900 2.71600
O 0.20800 -5.74700 3.22100
C -0.25500 -3.42800 3.70100
C 0.71700 -3.48200 4.84800
O 1.93100 -3.25500 4.66900
O 0.03800 -3.55600 6.00300
C 0.94300 -3.58300 7.18300
H -1.85900 3.22000 2.49700
H -0.21800 2.45300 -3.47400
H 0.27600 -3.74700 -2.60500
H -1.55400 -0.94900 5.13200
H -1.58500 1.83100 4.66500
H -3.48400 -0.37700 3.96900
H -3.51100 1.02700 2.85800
H -3.85200 1.30100 4.54300
H 0.66900 1.09600 4.96600
H 1.13000 -0.63900 5.18900
H -0.84400 0.02600 7.12500
H 0.06200 1.47700 6.92100
H -1.34400 5.18600 1.93800
H -1.65100 5.96300 0.43200
H 0.00700 6.02000 1.08400
H -0.63500 6.74400 -1.40500
H 0.66500 6.97000 -2.70400
H 1.04800 6.46600 -1.03600
H 0.60800 0.50100 -4.89100
H -0.69200 -2.15600 -4.54700
H -1.26700 0.74000 -6.12900
H -2.20400 0.71400 -4.59600
H -1.96700 -0.72000 -5.45300
H 1.35600 -1.75900 -5.96700
H 1.45200 -3.15700 -4.90200
H 2.71400 -0.52200 -4.79800
H 3.48700 -2.12100 -4.52900
H 2.49500 -1.30300 -3.24000
H 0.86700 -6.33300 -0.08400
H 0.40400 -5.64200 -1.68000
H -0.89100 -5.99900 -0.46300
H -1.28300 -3.58100 4.02800
H 0.69800 -4.47800 7.75500
H 0.83300 -2.61900 7.68000
H 2.00000 -3.75400 6.97600
Mg 31.54064 2.83272 2.39217
C 31.54215 3.48764 -1.13631
C 31.01078 -0.44980 1.63132
C 31.08538 2.29206 5.48536
C 30.92864 6.22856 2.88147
N 31.32339 1.77808 0.46012
C 31.40350 2.12086 -0.81676
C 31.41158 0.92367 -1.80481
C 30.67356 -0.15919 -0.87657
C 31.05058 0.39707 0.49496
C 29.15959 -0.12939 -1.00437
C 32.86544 0.46563 -2.17697
C 32.95327 -0.49027 -3.36873
H 34.10062 -0.38110 -4.26547
N 31.59884 1.13707 3.42171
C 31.38148 -0.10878 2.95065
C 31.52003 -1.00634 4.10795
C 31.67411 -0.17355 5.33165
C 31.43263 1.14639 4.78435
C 31.57821 -2.50058 3.97646
C 31.97476 -0.51072 6.76068
O 31.82695 0.34809 7.70059
C 32.35761 -1.90259 7.03929
N 30.86585 4.03393 3.94912
C 30.81241 3.56738 5.20904
C 30.56215 4.68423 6.19413
C 30.69993 6.03761 5.35332
C 30.92787 5.44005 3.94750
C 29.20571 4.65870 6.89825
C 31.70973 7.09375 5.88017
C 33.12135 6.56918 5.74774
N 31.46129 4.59451 1.14402
C 31.16306 5.91403 1.54899
C 31.11643 6.74418 0.32788
C 31.37006 5.83846 -0.71319
C 31.54125 4.53218 -0.18044
C 30.81861 8.13522 0.27851
C 31.52136 5.68852 -2.14264
O 31.56639 6.46321 -3.09740
C 31.51417 4.13788 -2.49168
C 32.66362 3.86608 -3.42302
O 33.83725 4.00527 -3.03595
O 32.19613 3.28126 -4.54097
C 33.30035 2.98203 -5.49122
H 30.61892 -1.46028 1.51185
H 31.02503 2.18075 6.57046
H 30.84071 7.31439 2.95847
H 30.84475 1.08162 -2.71449
H 31.09566 -1.15119 -1.01488
H 28.82274 0.69752 -1.61174
H 28.78094 -0.03626 0.00508
H 28.79366 -1.09079 -1.37602
H 33.24914 -0.18808 -1.38312
H 33.50043 1.31344 -2.34619
H 32.01886 -0.52101 -3.94221
H 33.06841 -1.50845 -2.98917
H 31.27287 -2.82845 2.97513
H 30.81084 -2.91027 4.64217
H 32.54922 -2.91102 4.26164
H 31.56125 -2.56807 6.71465
H 32.61948 -1.92714 8.09887
H 33.23936 -2.15001 6.43769
H 31.30768 4.68119 6.97980
H 29.74917 6.58899 5.31004
H 29.28692 4.63794 8.00145
H 28.65205 3.80037 6.54151
H 28.54007 5.48313 6.64836
H 31.54527 7.27685 6.94487
H 31.63752 8.05057 5.37394
H 33.24102 5.95369 6.64436
H 33.83541 7.39014 5.73434
H 33.21545 5.90758 4.87878
H 31.52656 8.58104 -0.40744
H 30.87930 8.59006 1.26503
H 29.79186 8.10169 -0.09557
H 30.55185 3.91009 -2.95171
H 33.04355 3.46177 -6.44074
H 33.40132 1.88042 -5.49456
H 34.26976 3.42158 -5.28756

