%nproc=24
%mem=175gb
#p cam-b3lyp/Def2SVP td=(nstates=5)

TDDFT excited states in gaussian

0 1
Mg 8.94208 0.80413 0.67157
C 8.55975 4.03084 -0.85197
C 8.41523 -0.54991 -2.41447
C 8.82510 -2.04984 2.05310
C 8.30257 2.33042 3.73867
N 8.55006 1.72490 -1.30093
C 8.48825 2.96215 -1.76970
C 8.42217 3.06101 -3.31741
C 7.81137 1.60808 -3.62531
C 8.31582 0.86418 -2.39048
C 6.29205 1.57900 -3.61293
C 9.83993 3.23735 -3.96616
C 9.82606 3.64908 -5.43994
H 10.87065 4.54897 -5.92108
N 9.14829 -1.00936 -0.10774
C 8.91316 -1.37792 -1.38452
C 9.19330 -2.82085 -1.44483
C 9.45400 -3.30626 -0.06240
C 9.12493 -2.11883 0.70036
C 9.27354 -3.58086 -2.73688
C 9.91011 -4.62530 0.48378
O 9.84042 -4.89656 1.73453
C 10.35345 -5.62413 -0.49972
N 8.40452 0.18316 2.58148
C 8.49407 -1.11000 2.93878
C 8.32100 -1.27725 4.42957
C 8.33759 0.20375 5.03284
C 8.43204 1.01094 3.71948
C 7.04640 -1.99371 4.87507
C 9.37101 0.49491 6.15532
C 10.77338 0.43502 5.59393
N 8.69044 2.83033 1.37811
C 8.40427 3.24425 2.69753
C 8.21050 4.70836 2.66216
C 8.37597 5.04425 1.31002
C 8.63331 3.86958 0.55278
C 7.87562 5.53030 3.77499
C 8.38094 6.12407 0.34946
O 8.30742 7.35016 0.42040
C 8.37486 5.50007 -1.11238
C 9.42714 6.20580 -1.92304
O 10.63103 6.09086 -1.63314
O 8.85987 6.71968 -3.02961
C 9.86587 7.42019 -3.87168
H 8.03758 -1.08182 -3.28816
H 8.88096 -2.99549 2.59725
H 8.19694 2.89315 4.66865
H 7.75990 3.83053 -3.69558
H 8.24059 1.18251 -4.52865
H 5.87380 2.51780 -3.28146
H 6.01861 0.78217 -2.93371
H 5.91269 1.28157 -4.59474
H 10.32001 2.25390 -4.05034
H 10.43313 3.93109 -3.40273
H 8.83795 4.00119 -5.76027
H 10.00472 2.76045 -6.05020
H 8.87345 -2.99508 -3.57365
H 8.58991 -4.43231 -2.64999
H 10.27863 -3.95434 -2.94415
H 9.54389 -5.82931 -1.19612
H 10.72491 -6.46677 0.08666
H 11.17336 -5.19644 -1.08746
H 9.14426 -1.83878 4.85387
H 7.37446 0.46645 5.49457
H 7.24271 -2.88715 5.49741
H 6.47946 -2.26155 3.99338
H 6.33861 -1.37700 5.42634
H 9.31412 -0.27281 6.93089
H 9.22329 1.45410 6.64021
H 11.00075 -0.63507 5.61156
H 11.46211 0.99528 6.22306
H 10.79230 0.75883 4.54682
H 8.49720 6.41329 3.70809
H 8.02786 5.00638 4.71632
H 6.81657 5.71092 3.57236
H 7.37560 5.64301 -1.52543
H 9.49992 8.44017 -4.02463
H 9.99253 6.79015 -4.77210
H 10.84033 7.60817 -3.43632

