%nproc=24
%mem=175gb
#p cam-b3lyp/Def2SVP td=(nstates=5)

TDDFT excited states in gaussian

0 1
Mg 8.92476 0.80757 0.68218
C 6.86545 -1.97983 -0.24986
C 6.94163 2.74538 -1.30443
C 10.97777 3.18629 1.12293
C 11.36142 -1.49176 1.64213
N 7.16148 0.32936 -0.56458
C 6.43178 -0.75227 -0.79251
C 5.12228 -0.48975 -1.58361
C 5.55707 0.86678 -2.32500
C 6.59429 1.37094 -1.32367
C 6.25304 0.62932 -3.65488
C 3.88998 -0.25909 -0.64008
C 2.52865 -0.30420 -1.33757
H 1.39373 -0.86943 -0.61303
N 8.70148 2.76198 0.41955
C 7.83283 3.37758 -0.40977
C 8.07728 4.81944 -0.25023
C 9.27277 4.99932 0.61763
C 9.71916 3.62600 0.73937
C 7.16921 5.86726 -0.82547
C 9.91612 6.20877 1.22551
O 11.08497 6.15828 1.74904
C 9.17700 7.47410 1.10659
N 10.96195 0.85364 1.09458
C 11.60122 2.02002 1.29156
C 12.98903 1.79513 1.84274
C 13.06087 0.23887 2.20395
C 11.67187 -0.20369 1.69384
C 14.14283 2.15382 0.90653
C 13.46574 -0.12819 3.65791
C 12.38308 0.30480 4.62006
N 9.04473 -1.34069 0.87879
C 10.16856 -2.09978 1.27230
C 9.79845 -3.52420 1.14392
C 8.48226 -3.49480 0.65885
C 8.06878 -2.14738 0.47723
C 10.65024 -4.63251 1.41262
C 7.35236 -4.29737 0.24908
O 7.08799 -5.49883 0.26741
C 6.29940 -3.35403 -0.47739
C 4.93868 -3.65392 0.08921
O 4.68111 -3.40522 1.28018
O 4.10503 -3.97961 -0.91545
C 2.73987 -4.27501 -0.40467
H 6.52528 3.39655 -2.07354
H 11.68899 3.97025 1.39322
H 12.03179 -2.26922 2.01474
H 4.87309 -1.24957 -2.31461
H 4.72510 1.56267 -2.39518
H 6.44651 -0.41908 -3.82681
H 7.18198 1.18203 -3.60357
H 5.67761 1.08182 -4.46757
H 3.89129 0.78380 -0.29786
H 3.90050 -0.95387 0.17711
H 2.59522 -0.73508 -2.34398
H 2.19132 0.72127 -1.50684
H 6.46851 5.43748 -1.55191
H 7.79543 6.54236 -1.41873
H 6.65468 6.44709 -0.05624
H 9.00801 7.69621 0.05561
H 9.75333 8.20403 1.67836
H 8.18953 7.34677 1.56408
H 13.14494 2.37297 2.74546
H 13.80438 -0.28840 1.58830
H 14.84245 2.89350 1.33953
H 13.72713 2.52181 -0.02207
H 14.74522 1.31095 0.57202
H 14.37128 0.41114 3.94650
H 13.66260 -1.18591 3.79750
H 12.60841 1.36263 4.78530
H 12.44552 -0.26155 5.54710
H 11.39393 0.24783 4.15103
H 10.05941 -5.35323 1.96215
H 11.53187 -4.32955 1.97361
H 10.89801 -4.93976 0.39307
H 6.35338 -3.56485 -1.54614
H 2.47633 -5.27667 -0.75809
H 2.10476 -3.43662 -0.74743
H 2.61943 -4.39007 0.66617

