%nproc=24
%mem=175gb
#p cam-b3lyp/Def2SVP td=(nstates=5)

TDDFT excited states in gaussian

0 1
Mg 31.53895 2.83542 2.40308
C 29.13791 1.90253 4.90185
C 32.80381 5.05675 4.66149
C 33.37109 3.99527 0.08674
C 29.41621 1.41519 0.03187
N 30.96049 3.32395 4.48129
C 30.07166 2.86118 5.34743
C 30.24126 3.40039 6.79313
C 31.01527 4.76531 6.45145
C 31.66653 4.35347 5.13277
C 30.08284 5.93397 6.17915
C 31.11609 2.45199 7.68601
C 31.06788 2.75501 9.18522
H 31.13013 1.63777 10.12349
N 33.18502 3.93988 2.49892
C 33.55249 4.76754 3.49952
C 34.83157 5.36163 3.08100
C 35.10711 4.94281 1.67979
C 33.86106 4.27888 1.35324
C 35.69585 6.16777 4.00652
C 36.29067 5.12268 0.77810
O 36.22136 4.88496 -0.47948
C 37.50632 5.67421 1.39412
N 31.31942 2.91346 0.33715
C 32.28854 3.42465 -0.44223
C 32.03136 3.12482 -1.89974
C 30.80914 2.09358 -1.91707
C 30.49981 2.04235 -0.40475
C 31.69269 4.32978 -2.77709
C 31.02905 0.75421 -2.67232
C 32.05695 -0.08436 -1.94734
N 29.71680 1.67516 2.44323
C 28.98042 1.20486 1.33388
C 27.75710 0.56700 1.86213
C 27.85624 0.73210 3.25188
C 29.04666 1.44177 3.56614
C 26.71944 -0.01609 1.08150
C 27.21928 0.47673 4.52380
O 26.23188 -0.16029 4.88848
C 27.95785 1.33403 5.64001
C 28.23276 0.43230 6.81210
O 29.02072 -0.52364 6.70296
O 27.69259 0.97236 7.91976
C 27.94826 0.11973 9.11118
H 33.13118 5.94061 5.20967
H 34.02150 4.27722 -0.74449
H 28.75223 0.86287 -0.63653
H 29.31348 3.61806 7.30852
H 31.77329 4.98710 7.19816
H 29.04879 5.62469 6.14426
H 30.38928 6.33826 5.22328
H 30.25160 6.72927 6.91082
H 32.17703 2.65179 7.48796
H 30.85858 1.42457 7.51655
H 30.24123 3.42804 9.44334
H 31.96531 3.31719 9.45465
H 35.15619 6.44671 4.91995
H 35.89597 7.12195 3.50716
H 36.64678 5.67847 4.22787
H 37.28292 6.64681 1.82609
H 38.26875 5.64485 0.61327
H 37.80493 5.02279 2.22303
H 32.89405 2.65501 -2.35598
H 29.92139 2.52206 -2.40506
H 32.37716 4.44890 -3.63814
H 31.70299 5.21673 -2.15761
H 30.68042 4.33947 -3.17760
H 31.43137 0.94393 -3.67048
H 30.12077 0.17398 -2.79613
H 33.00630 0.31941 -2.31174
H 31.94823 -1.13484 -2.20947
H 32.01706 0.09197 -0.86615
H 26.45287 -0.94721 1.56363
H 27.03764 -0.17665 0.05352
H 25.95642 0.76313 1.15806
H 27.29969 2.16206 5.90603
H 26.97498 -0.10374 9.55892
H 28.67091 0.68235 9.73166
H 28.33623 -0.87755 8.93986

