%nproc=24
%mem=175gb
#p cam-b3lyp/Def2SVP td=(nstates=5)

TDDFT excited states in gaussian

0 1
Mg 0.00000 0.00000 0.00000
C -0.21700 -2.21800 2.80100
C -1.25500 2.44200 2.02600
C -0.24500 1.85000 -2.56400
C 0.14600 -2.82400 -2.03700
N -0.61700 -0.00900 2.12600
C -0.59400 -0.90800 3.10500
C -0.93600 -0.30900 4.50200
C -1.77300 0.96400 4.03200
C -1.15500 1.16800 2.66000
C -3.26300 0.68500 3.86300
C 0.34500 0.11000 5.29900
C 0.12400 0.39700 6.78700
H 1.16800 0.03300 7.73300
N -0.18500 1.96100 -0.15200
C -0.70300 2.80000 0.77700
C -0.62000 4.15600 0.19300
C -0.18700 4.01500 -1.22500
C -0.21400 2.58300 -1.38000
C -0.88700 5.40600 0.97400
C 0.18100 5.01300 -2.27700
O 0.30300 4.69000 -3.50800
C 0.31000 6.41400 -1.83700
N -0.26500 -0.41300 -2.02900
C -0.27900 0.56900 -2.93700
C -0.19600 0.02400 -4.33200
C 0.12400 -1.53300 -4.18000
C 0.08600 -1.63200 -2.63500
C -1.45100 0.20500 -5.19700
C 1.37300 -2.07000 -4.92300
C 2.62600 -1.49000 -4.30600
N 0.15000 -2.14400 0.30300
C 0.17300 -3.13600 -0.68800
C 0.17300 -4.43800 0.00400
C 0.13300 -4.11100 1.35800
C 0.08300 -2.69500 1.50200
C 0.14900 -5.71500 -0.62300
C 0.09600 -4.62900 2.71600
O 0.20800 -5.74700 3.22100
C -0.25500 -3.42800 3.70100
C 0.71700 -3.48200 4.84800
O 1.93100 -3.25500 4.66900
O 0.03800 -3.55600 6.00300
C 0.94300 -3.58300 7.18300
H -1.85900 3.22000 2.49700
H -0.21800 2.45300 -3.47400
H 0.27600 -3.74700 -2.60500
H -1.55400 -0.94900 5.13200
H -1.58500 1.83100 4.66500
H -3.48400 -0.37700 3.96900
H -3.51100 1.02700 2.85800
H -3.85200 1.30100 4.54300
H 0.66900 1.09600 4.96600
H 1.13000 -0.63900 5.18900
H -0.84400 0.02600 7.12500
H 0.06200 1.47700 6.92100
H -1.34400 5.18600 1.93800
H -1.65100 5.96300 0.43200
H 0.00700 6.02000 1.08400
H -0.63500 6.74400 -1.40500
H 0.66500 6.97000 -2.70400
H 1.04800 6.46600 -1.03600
H 0.60800 0.50100 -4.89100
H -0.69200 -2.15600 -4.54700
H -1.26700 0.74000 -6.12900
H -2.20400 0.71400 -4.59600
H -1.96700 -0.72000 -5.45300
H 1.35600 -1.75900 -5.96700
H 1.45200 -3.15700 -4.90200
H 2.71400 -0.52200 -4.79800
H 3.48700 -2.12100 -4.52900
H 2.49500 -1.30300 -3.24000
H 0.86700 -6.33300 -0.08400
H 0.40400 -5.64200 -1.68000
H -0.89100 -5.99900 -0.46300
H -1.28300 -3.58100 4.02800
H 0.69800 -4.47800 7.75500
H 0.83300 -2.61900 7.68000
H 2.00000 -3.75400 6.97600
Mg 10.50212 0.94856 0.79289
C 10.39367 -1.82805 -1.47817
C 10.70358 2.98215 -1.93814
C 11.05182 3.37414 2.76313
C 11.43414 -1.30388 3.28358
N 10.53478 0.51474 -1.37575
C 10.42572 -0.57375 -2.12250
C 10.26567 -0.29813 -3.64170
C 10.94763 1.15476 -3.69565
C 10.68576 1.60120 -2.25871
C 12.45068 1.10633 -3.91436
C 8.76121 -0.24329 -4.08399
C 8.53364 -0.28622 -5.59664
H 7.35979 -0.99119 -6.10417
N 10.34241 2.90455 0.49763
C 10.42653 3.55936 -0.67941
C 10.26339 4.98581 -0.35880
C 10.24088 5.13421 1.12180
C 10.57227 3.78295 1.52723
C 10.06725 6.03893 -1.41042
C 9.97869 6.30232 2.02345
O 10.24560 6.25907 3.27634
C 9.48772 7.52978 1.38020
N 11.35247 1.06197 2.68666
C 11.42326 2.23296 3.34371
C 11.81703 2.02580 4.78677
C 11.76031 0.44541 5.02496
C 11.41500 -0.01431 3.59150
C 13.19732 2.55050 5.18158
C 10.87356 -0.05836 6.19652
C 9.41645 0.20352 5.89052
N 10.67852 -1.19815 0.96184
C 11.11084 -1.93249 2.08787
C 11.17357 -3.35212 1.68396
C 10.79250 -3.34231 0.33371
C 10.53157 -2.00823 -0.08058
C 11.59058 -4.43421 2.50937
C 10.56192 -4.15597 -0.83825
O 10.54099 -5.36485 -1.06608
C 10.41567 -3.19773 -2.09793
C 9.20444 -3.63442 -2.87558
O 8.06708 -3.53487 -2.38251
O 9.56565 -3.89203 -4.14583
C 8.39612 -4.31829 -4.95965
H 10.99855 3.69077 -2.71256
H 11.15273 4.16152 3.51368
H 11.62122 -2.07942 4.02938
H 10.80113 -0.98439 -4.28677
H 10.43348 1.80662 -4.39715
H 12.83057 0.09609 -3.87926
H 12.88282 1.70085 -3.12010
H 12.71241 1.61383 -4.84725
H 8.35874 0.75337 -3.86165
H 8.19646 -1.02320 -3.61132
H 9.43385 -0.59777 -6.14023
H 8.34679 0.73129 -5.94847
H 10.29529 5.65442 -2.41219
H 10.82566 6.80987 -1.23625
H 9.07814 6.49972 -1.36575
H 10.20609 7.85795 0.63272
H 9.27450 8.22241 2.19670
H 8.56042 7.29731 0.84478
H 11.11168 2.50714 5.45302
H 12.75303 0.03242 5.25686
H 13.16622 3.27516 6.01703
H 13.65565 2.99600 4.30866
H 13.92083 1.78515 5.45720
H 11.10313 0.49512 7.11037
H 11.00635 -1.11239 6.41646
H 9.28485 1.24724 6.19122
H 8.77792 -0.45832 6.47215
H 9.22373 0.14410 4.81303
H 10.89353 -5.24356 2.33739
H 11.61649 -4.14698 3.55847
H 12.59173 -4.61151 2.10748
H 11.33154 -3.28468 -2.68376
H 8.64968 -5.28742 -5.40030
H 8.19810 -3.48367 -5.65818
H 7.47994 -4.55862 -4.43304

