%nproc=24
%mem=175gb
#p cam-b3lyp/Def2SVP td=(nstates=5)

TDDFT excited states in gaussian

0 1
Mg 31.54215 2.84303 2.39376
C 33.56653 0.72152 4.46259
C 32.58636 5.46103 4.31478
C 29.42955 4.66548 0.88278
C 29.80973 -0.01305 1.40016
N 32.90201 2.95087 4.13484
C 33.66152 2.08913 4.79431
C 34.63357 2.73872 5.81545
C 33.83122 4.10528 6.07546
C 33.08266 4.20558 4.74795
C 32.80796 3.99889 7.19393
C 36.05086 3.01286 5.20051
C 37.13849 3.35794 6.22018
H 38.49894 2.88859 5.97247
N 31.42940 4.81819 2.23688
C 31.92828 5.73244 3.09510
C 31.56249 7.04547 2.54164
C 30.66539 6.82898 1.37414
C 30.45193 5.39865 1.46738
C 32.11956 8.33522 3.07043
C 30.08418 7.75777 0.35152
O 29.13923 7.38986 -0.43241
C 30.58920 9.13849 0.35772
N 29.73004 2.42618 1.46379
C 29.03629 3.39247 0.83696
C 27.91423 2.81011 0.01099
C 28.14940 1.22829 0.02132
C 29.36887 1.15992 0.96663
C 26.49917 3.11719 0.50057
C 28.24346 0.52173 -1.35876
C 29.49912 0.95918 -2.07802
N 31.75755 0.71308 2.68520
C 30.90595 -0.30441 2.20190
C 31.39775 -1.58296 2.75498
C 32.49624 -1.21501 3.54645
C 32.66405 0.19558 3.50674
C 30.81068 -2.86207 2.54208
C 33.54553 -1.69805 4.41500
O 33.95262 -2.80956 4.75049
C 34.20810 -0.45296 5.14788
C 35.70205 -0.59414 5.04448
O 36.26767 -0.53284 3.93862
O 36.23441 -0.56008 6.27972
C 37.71545 -0.68549 6.22866
H 32.67043 6.31311 4.98989
H 28.73761 5.23580 0.25873
H 29.38355 -0.95906 1.05943
H 34.74847 2.19256 6.74404
H 34.51033 4.94548 6.19469
H 32.70593 2.98507 7.55155
H 31.87412 4.34718 6.77240
H 33.05474 4.69773 7.99833
H 36.01968 3.95236 4.63385
H 36.37074 2.18584 4.59689
H 36.83136 3.12184 7.24628
H 37.27844 4.44164 6.22494
H 32.62167 8.19105 4.03505
H 31.26577 8.98102 3.30248
H 32.76167 8.84416 2.34838
H 30.40958 9.58434 1.33313
H 30.12115 9.62471 -0.50042
H 31.67572 9.11423 0.21804
H 27.96147 3.16575 -1.01097
H 27.32943 0.69774 0.52729
H 25.87203 3.61605 -0.26226
H 26.57101 3.72666 1.39160
H 25.93591 2.25554 0.85484
H 27.40381 0.81636 -1.99306
H 28.23176 -0.56100 -1.29137
H 29.20151 1.90469 -2.54121
H 29.78623 0.22525 -2.82832
H 30.30365 1.17941 -1.36676
H 31.62376 -3.55015 2.35244
H 30.10422 -2.84258 1.71485
H 30.31255 -3.01058 3.50388
H 33.86668 -0.46277 6.18370
H 37.98637 -1.53386 6.86471
H 38.10944 0.30693 6.51786
H 38.16148 -0.97759 5.28516

