%nproc=24
%mem=175gb
#p cam-b3lyp/Def2SVP td=(nstates=5)

TDDFT excited states in gaussian

0 1
Mg 0.00000 0.00000 0.00000
C -0.21700 -2.21800 2.80100
C -1.25500 2.44200 2.02600
C -0.24500 1.85000 -2.56400
C 0.14600 -2.82400 -2.03700
N -0.61700 -0.00900 2.12600
C -0.59400 -0.90800 3.10500
C -0.93600 -0.30900 4.50200
C -1.77300 0.96400 4.03200
C -1.15500 1.16800 2.66000
C -3.26300 0.68500 3.86300
C 0.34500 0.11000 5.29900
C 0.12400 0.39700 6.78700
H 1.16800 0.03300 7.73300
N -0.18500 1.96100 -0.15200
C -0.70300 2.80000 0.77700
C -0.62000 4.15600 0.19300
C -0.18700 4.01500 -1.22500
C -0.21400 2.58300 -1.38000
C -0.88700 5.40600 0.97400
C 0.18100 5.01300 -2.27700
O 0.30300 4.69000 -3.50800
C 0.31000 6.41400 -1.83700
N -0.26500 -0.41300 -2.02900
C -0.27900 0.56900 -2.93700
C -0.19600 0.02400 -4.33200
C 0.12400 -1.53300 -4.18000
C 0.08600 -1.63200 -2.63500
C -1.45100 0.20500 -5.19700
C 1.37300 -2.07000 -4.92300
C 2.62600 -1.49000 -4.30600
N 0.15000 -2.14400 0.30300
C 0.17300 -3.13600 -0.68800
C 0.17300 -4.43800 0.00400
C 0.13300 -4.11100 1.35800
C 0.08300 -2.69500 1.50200
C 0.14900 -5.71500 -0.62300
C 0.09600 -4.62900 2.71600
O 0.20800 -5.74700 3.22100
C -0.25500 -3.42800 3.70100
C 0.71700 -3.48200 4.84800
O 1.93100 -3.25500 4.66900
O 0.03800 -3.55600 6.00300
C 0.94300 -3.58300 7.18300
H -1.85900 3.22000 2.49700
H -0.21800 2.45300 -3.47400
H 0.27600 -3.74700 -2.60500
H -1.55400 -0.94900 5.13200
H -1.58500 1.83100 4.66500
H -3.48400 -0.37700 3.96900
H -3.51100 1.02700 2.85800
H -3.85200 1.30100 4.54300
H 0.66900 1.09600 4.96600
H 1.13000 -0.63900 5.18900
H -0.84400 0.02600 7.12500
H 0.06200 1.47700 6.92100
H -1.34400 5.18600 1.93800
H -1.65100 5.96300 0.43200
H 0.00700 6.02000 1.08400
H -0.63500 6.74400 -1.40500
H 0.66500 6.97000 -2.70400
H 1.04800 6.46600 -1.03600
H 0.60800 0.50100 -4.89100
H -0.69200 -2.15600 -4.54700
H -1.26700 0.74000 -6.12900
H -2.20400 0.71400 -4.59600
H -1.96700 -0.72000 -5.45300
H 1.35600 -1.75900 -5.96700
H 1.45200 -3.15700 -4.90200
H 2.71400 -0.52200 -4.79800
H 3.48700 -2.12100 -4.52900
H 2.49500 -1.30300 -3.24000
H 0.86700 -6.33300 -0.08400
H 0.40400 -5.64200 -1.68000
H -0.89100 -5.99900 -0.46300
H -1.28300 -3.58100 4.02800
H 0.69800 -4.47800 7.75500
H 0.83300 -2.61900 7.68000
H 2.00000 -3.75400 6.97600
Mg 31.52693 2.83312 2.40228
C 30.46573 5.40045 4.67422
C 33.08667 1.34609 5.04625
C 32.85044 0.80439 0.35288
C 30.88288 5.06182 -0.19845
N 31.68346 3.39622 4.53552
C 31.18765 4.36053 5.29619
C 31.41361 4.15918 6.81867
C 32.70214 3.20351 6.74621
C 32.46561 2.57798 5.37310
C 34.01568 3.96649 6.70363
C 30.20369 3.44046 7.51261
C 30.21902 3.48743 9.04209
H 28.94534 3.59736 9.74787
N 32.36169 1.05900 2.70928
C 32.92645 0.61196 3.85054
C 33.41224 -0.74470 3.55449
C 33.23510 -0.99914 2.09895
C 32.81901 0.31455 1.65043
C 33.90368 -1.68317 4.61805
C 33.42302 -2.21919 1.24903
O 33.44091 -2.15201 -0.03081
C 33.67870 -3.48041 1.95998
N 32.02615 2.98648 0.38992
C 32.54173 1.93849 -0.27627
C 32.56255 2.19480 -1.76431
C 31.72712 3.54131 -1.98006
C 31.43052 3.89404 -0.50595
C 33.94703 2.34884 -2.39350
C 30.53914 3.48007 -2.97887
C 29.44746 2.59083 -2.42852
N 30.63562 4.79262 2.21795
C 30.48864 5.55533 1.03865
C 29.93189 6.86535 1.43397
C 29.81418 6.78162 2.82955
C 30.28456 5.51671 3.27479
C 29.65299 7.95004 0.55545
C 29.40888 7.47963 4.02839
O 28.85245 8.55149 4.26342
C 29.93060 6.66395 5.28889
C 28.79336 6.54086 6.26564
O 27.77879 5.88308 5.97481
O 29.17989 7.03392 7.45638
C 28.08930 6.92393 8.46154
H 33.79772 0.91958 5.75434
H 33.19577 0.10105 -0.40839
H 30.56235 5.77508 -0.96080
H 31.65159 5.06333 7.36607
H 32.67369 2.44262 7.52185
H 33.86040 5.03101 6.60962
H 34.54992 3.58465 5.84350
H 34.62692 3.71361 7.57471
H 30.29331 2.35764 7.35698
H 29.27146 3.82651 7.14855
H 30.93526 4.22470 9.42467
H 30.59385 2.53112 9.41490
H 34.07324 -1.16130 5.56794
H 34.89989 -2.02017 4.31169
H 33.25801 -2.55528 4.74137
H 34.57214 -3.37584 2.57096
H 33.69666 -4.25243 1.18827
H 32.84712 -3.66890 2.64814
H 32.07685 1.38990 -2.30221
H 32.35600 4.35187 -2.37673
H 34.13512 1.63242 -3.21535
H 34.69004 2.23798 -1.61492
H 34.16870 3.34022 -2.78493
H 30.85990 3.03038 -3.92176
H 30.12043 4.45332 -3.21225
H 29.78212 1.58739 -2.70817
H 28.49051 2.83006 -2.88792
H 29.41817 2.63534 -1.33362
H 28.69141 8.34939 0.84935
H 29.65012 7.62905 -0.48413
H 30.49858 8.60553 0.78033
H 30.77344 7.21406 5.70910
H 27.91729 7.92951 8.85766
H 28.42111 6.14991 9.17887
H 27.10008 6.66633 8.10163

