%nproc=24
%mem=175gb
#p cam-b3lyp/Def2SVP td=(nstates=5)

TDDFT excited states in gaussian

0 1
Mg 13.13755 1.19155 1.00400
C 15.10030 0.28860 3.86954
C 10.47749 1.51535 3.11441
C 11.28443 1.54934 -1.54656
C 15.59737 -0.28665 -0.97335
N 12.93983 0.91188 3.18917
C 13.76774 0.62810 4.18333
C 13.15251 0.79111 5.59913
C 11.60482 0.60948 5.21113
C 11.66136 1.07299 3.75695
C 11.14477 -0.83870 5.23329
C 13.42864 2.20926 6.21118
C 13.12702 2.33427 7.70623
H 13.98367 3.19269 8.51970
N 11.31321 1.95516 0.83897
C 10.37061 2.02617 1.80217
C 9.19868 2.65428 1.17269
C 9.46913 2.79800 -0.28365
C 10.71833 2.07158 -0.39272
C 8.00808 3.12447 1.95679
C 8.72009 3.46628 -1.39655
O 9.01888 3.26329 -2.62632
C 7.56738 4.29190 -1.00782
N 13.29296 0.51938 -0.95722
C 12.37659 0.86129 -1.87987
C 12.83929 0.49535 -3.26997
C 14.36826 0.05405 -3.11158
C 14.50475 0.16071 -1.57686
C 12.05619 -0.62185 -3.95919
C 15.40884 0.79033 -3.99914
C 15.51807 2.23701 -3.57418
N 15.09759 0.34459 1.33410
C 15.94624 -0.24296 0.37044
C 17.11919 -0.77812 1.09171
C 16.85857 -0.48281 2.43832
C 15.60183 0.17101 2.55069
C 18.20981 -1.47795 0.50272
C 17.35591 -0.58498 3.79143
O 18.40810 -0.96451 4.30386
C 16.18128 -0.20293 4.79177
C 16.73030 0.76326 5.80546
O 17.10923 1.89583 5.45860
O 16.51634 0.27478 7.04077
C 17.03368 1.20305 8.08120
H 9.53180 1.42455 3.64950
H 10.73582 1.74444 -2.47092
H 16.45379 -0.67469 -1.52892
H 13.44840 0.03192 6.31317
H 10.97058 1.26941 5.79730
H 11.96720 -1.52031 5.39188
H 10.68649 -1.01655 4.26924
H 10.35042 -0.97059 5.97353
H 12.69485 2.92088 5.81132
H 14.43810 2.51710 6.01923
H 12.99894 1.35543 8.18415
H 12.15522 2.81962 7.82478
H 8.02231 2.73481 2.98215
H 7.12408 2.66329 1.50321
H 7.89107 4.21005 1.93455
H 6.85207 3.67996 -0.46346
H 7.21646 4.75702 -1.93106
H 7.91057 5.06731 -0.31386
H 12.78720 1.35056 -3.93255
H 14.51507 -1.00563 -3.36724
H 11.62707 -0.31774 -4.93256
H 11.27658 -0.95654 -3.28783
H 12.61739 -1.53773 -4.13640
H 15.08047 0.79696 -5.04139
H 16.39451 0.33773 -3.97490
H 14.68206 2.71150 -4.09670
H 16.47064 2.65801 -3.88948
H 15.33871 2.34576 -2.49824
H 19.11140 -1.08701 0.95528
H 18.22222 -1.35728 -0.57851
H 17.96709 -2.50203 0.79871
H 15.83140 -1.12666 5.25424
H 17.72744 0.63006 8.70415
H 16.13913 1.62277 8.57856
H 17.66750 2.01909 7.75439

