%nproc=24
%mem=175gb
#p cam-b3lyp/Def2SVP td=(nstates=5)

TDDFT excited states in gaussian

0 1
Mg 0.00000 0.00000 0.00000
C -0.21700 -2.21800 2.80100
C -1.25500 2.44200 2.02600
C -0.24500 1.85000 -2.56400
C 0.14600 -2.82400 -2.03700
N -0.61700 -0.00900 2.12600
C -0.59400 -0.90800 3.10500
C -0.93600 -0.30900 4.50200
C -1.77300 0.96400 4.03200
C -1.15500 1.16800 2.66000
C -3.26300 0.68500 3.86300
C 0.34500 0.11000 5.29900
C 0.12400 0.39700 6.78700
H 1.16800 0.03300 7.73300
N -0.18500 1.96100 -0.15200
C -0.70300 2.80000 0.77700
C -0.62000 4.15600 0.19300
C -0.18700 4.01500 -1.22500
C -0.21400 2.58300 -1.38000
C -0.88700 5.40600 0.97400
C 0.18100 5.01300 -2.27700
O 0.30300 4.69000 -3.50800
C 0.31000 6.41400 -1.83700
N -0.26500 -0.41300 -2.02900
C -0.27900 0.56900 -2.93700
C -0.19600 0.02400 -4.33200
C 0.12400 -1.53300 -4.18000
C 0.08600 -1.63200 -2.63500
C -1.45100 0.20500 -5.19700
C 1.37300 -2.07000 -4.92300
C 2.62600 -1.49000 -4.30600
N 0.15000 -2.14400 0.30300
C 0.17300 -3.13600 -0.68800
C 0.17300 -4.43800 0.00400
C 0.13300 -4.11100 1.35800
C 0.08300 -2.69500 1.50200
C 0.14900 -5.71500 -0.62300
C 0.09600 -4.62900 2.71600
O 0.20800 -5.74700 3.22100
C -0.25500 -3.42800 3.70100
C 0.71700 -3.48200 4.84800
O 1.93100 -3.25500 4.66900
O 0.03800 -3.55600 6.00300
C 0.94300 -3.58300 7.18300
H -1.85900 3.22000 2.49700
H -0.21800 2.45300 -3.47400
H 0.27600 -3.74700 -2.60500
H -1.55400 -0.94900 5.13200
H -1.58500 1.83100 4.66500
H -3.48400 -0.37700 3.96900
H -3.51100 1.02700 2.85800
H -3.85200 1.30100 4.54300
H 0.66900 1.09600 4.96600
H 1.13000 -0.63900 5.18900
H -0.84400 0.02600 7.12500
H 0.06200 1.47700 6.92100
H -1.34400 5.18600 1.93800
H -1.65100 5.96300 0.43200
H 0.00700 6.02000 1.08400
H -0.63500 6.74400 -1.40500
H 0.66500 6.97000 -2.70400
H 1.04800 6.46600 -1.03600
H 0.60800 0.50100 -4.89100
H -0.69200 -2.15600 -4.54700
H -1.26700 0.74000 -6.12900
H -2.20400 0.71400 -4.59600
H -1.96700 -0.72000 -5.45300
H 1.35600 -1.75900 -5.96700
H 1.45200 -3.15700 -4.90200
H 2.71400 -0.52200 -4.79800
H 3.48700 -2.12100 -4.52900
H 2.49500 -1.30300 -3.24000
H 0.86700 -6.33300 -0.08400
H 0.40400 -5.64200 -1.68000
H -0.89100 -5.99900 -0.46300
H -1.28300 -3.58100 4.02800
H 0.69800 -4.47800 7.75500
H 0.83300 -2.61900 7.68000
H 2.00000 -3.75400 6.97600
Mg 8.94211 0.79727 0.67927
C 9.09501 -0.33656 -2.72222
C 8.28188 -2.42899 1.56802
C 8.35652 1.83207 3.62099
C 8.47712 4.02043 -0.56201
N 8.74046 -1.05440 -0.51358
C 8.88028 -1.37420 -1.79129
C 8.86464 -2.89970 -2.07792
C 8.04447 -3.37925 -0.78323
C 8.40081 -2.23878 0.16810
C 6.53889 -3.37642 -0.98948
C 10.30672 -3.51749 -2.10568
C 10.38917 -4.93246 -2.68256
H 11.57028 -5.29995 -3.45872
N 8.88400 -0.18966 2.40007
C 8.62338 -1.50192 2.57710
C 8.67935 -1.73089 4.02920
C 8.83141 -0.41433 4.70616
C 8.67216 0.48185 3.57850
C 8.67035 -3.10322 4.63752
C 9.06678 -0.02573 6.13437
O 8.92837 1.18401 6.53461
C 9.37285 -1.11840 7.06918
N 8.27303 2.61846 1.42623
C 8.15449 2.82110 2.75017
C 7.92463 4.28106 3.06012
C 8.15557 5.05486 1.67973
C 8.40233 3.84625 0.75033
C 6.54534 4.63387 3.61644
C 9.19627 6.20794 1.68487
C 10.58484 5.64899 1.89660
N 8.98972 1.73687 -1.26571
C 8.74140 3.09475 -1.56334
C 8.77614 3.23154 -3.03389
C 9.02138 1.92912 -3.49438
C 9.11161 1.03965 -2.38976
C 8.54712 4.43220 -3.76331
C 9.21387 1.10266 -4.66426
O 9.32840 1.31742 -5.87028
C 9.14432 -0.42259 -4.22248
C 10.31045 -1.14016 -4.84516
O 11.47556 -0.86106 -4.51162
O 9.85380 -2.18065 -5.56573
C 10.97411 -2.93021 -6.19412
H 7.84638 -3.36082 1.92985
H 8.25403 2.26111 4.62044
H 8.43872 5.00985 -1.02270
H 8.33730 -3.18710 -2.97963
H 8.42305 -4.32476 -0.40369
H 6.26287 -2.93821 -1.93707
H 6.13101 -2.79702 -0.17157
H 6.14020 -4.38796 -0.87047
H 10.63145 -3.71516 -1.07601
H 10.98696 -2.87380 -2.62872
H 9.47441 -5.21295 -3.21874
H 10.44245 -5.64256 -1.85374
H 8.38391 -3.86665 3.90366
H 7.86205 -3.12009 5.37659
H 9.61033 -3.34910 5.13616
H 8.55704 -1.83736 7.06389
H 9.59704 -0.63403 8.02155
H 10.26169 -1.64833 6.70897
H 8.64199 4.63944 3.78816
H 7.23432 5.54052 1.32579
H 6.58789 5.14727 4.59557
H 5.96368 3.72450 3.68886
H 5.92884 5.25121 2.96528
H 9.00465 6.88732 2.51906
H 9.18722 6.80199 0.77711
H 10.64434 5.54118 2.98376
H 11.33744 6.34254 1.52696
H 10.67666 4.64747 1.46052
H 9.29853 4.47239 -4.54065
H 8.59593 5.30577 -3.11657
H 7.53326 4.24808 -4.12865
H 8.18840 -0.81987 -4.56594
H 10.77303 -2.96324 -7.26937
H 11.02228 -3.89815 -5.66071
H 11.95597 -2.47184 -6.17657

