%nproc=24
%mem=175gb
#p cam-b3lyp/Def2SVP td=(nstates=5)

TDDFT excited states in gaussian

0 1
Mg 0.00000 0.00000 0.00000
C -0.21700 -2.21800 2.80100
C -1.25500 2.44200 2.02600
C -0.24500 1.85000 -2.56400
C 0.14600 -2.82400 -2.03700
N -0.61700 -0.00900 2.12600
C -0.59400 -0.90800 3.10500
C -0.93600 -0.30900 4.50200
C -1.77300 0.96400 4.03200
C -1.15500 1.16800 2.66000
C -3.26300 0.68500 3.86300
C 0.34500 0.11000 5.29900
C 0.12400 0.39700 6.78700
H 1.16800 0.03300 7.73300
N -0.18500 1.96100 -0.15200
C -0.70300 2.80000 0.77700
C -0.62000 4.15600 0.19300
C -0.18700 4.01500 -1.22500
C -0.21400 2.58300 -1.38000
C -0.88700 5.40600 0.97400
C 0.18100 5.01300 -2.27700
O 0.30300 4.69000 -3.50800
C 0.31000 6.41400 -1.83700
N -0.26500 -0.41300 -2.02900
C -0.27900 0.56900 -2.93700
C -0.19600 0.02400 -4.33200
C 0.12400 -1.53300 -4.18000
C 0.08600 -1.63200 -2.63500
C -1.45100 0.20500 -5.19700
C 1.37300 -2.07000 -4.92300
C 2.62600 -1.49000 -4.30600
N 0.15000 -2.14400 0.30300
C 0.17300 -3.13600 -0.68800
C 0.17300 -4.43800 0.00400
C 0.13300 -4.11100 1.35800
C 0.08300 -2.69500 1.50200
C 0.14900 -5.71500 -0.62300
C 0.09600 -4.62900 2.71600
O 0.20800 -5.74700 3.22100
C -0.25500 -3.42800 3.70100
C 0.71700 -3.48200 4.84800
O 1.93100 -3.25500 4.66900
O 0.03800 -3.55600 6.00300
C 0.94300 -3.58300 7.18300
H -1.85900 3.22000 2.49700
H -0.21800 2.45300 -3.47400
H 0.27600 -3.74700 -2.60500
H -1.55400 -0.94900 5.13200
H -1.58500 1.83100 4.66500
H -3.48400 -0.37700 3.96900
H -3.51100 1.02700 2.85800
H -3.85200 1.30100 4.54300
H 0.66900 1.09600 4.96600
H 1.13000 -0.63900 5.18900
H -0.84400 0.02600 7.12500
H 0.06200 1.47700 6.92100
H -1.34400 5.18600 1.93800
H -1.65100 5.96300 0.43200
H 0.00700 6.02000 1.08400
H -0.63500 6.74400 -1.40500
H 0.66500 6.97000 -2.70400
H 1.04800 6.46600 -1.03600
H 0.60800 0.50100 -4.89100
H -0.69200 -2.15600 -4.54700
H -1.26700 0.74000 -6.12900
H -2.20400 0.71400 -4.59600
H -1.96700 -0.72000 -5.45300
H 1.35600 -1.75900 -5.96700
H 1.45200 -3.15700 -4.90200
H 2.71400 -0.52200 -4.79800
H 3.48700 -2.12100 -4.52900
H 2.49500 -1.30300 -3.24000
H 0.86700 -6.33300 -0.08400
H 0.40400 -5.64200 -1.68000
H -0.89100 -5.99900 -0.46300
H -1.28300 -3.58100 4.02800
H 0.69800 -4.47800 7.75500
H 0.83300 -2.61900 7.68000
H 2.00000 -3.75400 6.97600
Mg 7.88189 0.71427 0.60831
C 5.93202 -1.77233 2.30944
C 5.30007 2.88131 1.13053
C 9.37518 2.79028 -1.26991
C 9.75844 -1.88802 -0.75270
N 5.92245 0.46868 1.60457
C 5.31625 -0.50403 2.26842
C 4.01309 -0.07296 2.99335
C 3.64302 1.19953 2.08632
C 5.04301 1.56839 1.59985
C 2.79365 0.84920 0.87587
C 4.26777 0.33986 4.48557
C 3.00536 0.47484 5.33989
H 3.07073 0.08301 6.74512
N 7.65166 2.67692 0.42507
C 6.54393 3.39578 0.70337
C 6.87890 4.79171 0.38190
C 8.21932 4.81561 -0.26418
C 8.46368 3.39538 -0.41692
C 5.99903 5.94755 0.76044
C 9.12498 5.93215 -0.68762
O 10.13788 5.72688 -1.44574
C 8.73795 7.28619 -0.26540
N 9.21559 0.48232 -0.96960
C 9.75623 1.55110 -1.58062
C 10.88806 1.14307 -2.49324
C 11.15448 -0.40290 -2.18251
C 10.02175 -0.65504 -1.16332
C 10.63459 1.32483 -3.98960
C 12.60352 -0.80252 -1.79101
C 12.95676 -0.20989 -0.44587
N 7.99444 -1.42686 0.87463
C 8.83315 -2.32933 0.18456
C 8.46670 -3.69008 0.62785
C 7.41633 -3.48467 1.53505
C 7.13365 -2.09549 1.63387
C 9.04739 -4.90224 0.15924
C 6.47532 -4.12793 2.42354
O 6.30014 -5.28058 2.81652
C 5.38806 -3.05749 2.86899
C 5.22181 -3.15737 4.36060
O 6.15840 -2.85879 5.12234
O 3.92547 -3.37786 4.64569
C 3.70835 -3.47345 6.11387
H 4.46230 3.57333 1.04025
H 9.99355 3.47139 -1.85913
H 10.36208 -2.74590 -1.05656
H 3.21138 -0.80080 2.95765
H 3.22357 2.00331 2.68578
H 2.67759 -0.21821 0.76043
H 3.31075 1.26802 0.02249
H 1.83112 1.36601 0.92844
H 4.62568 1.37709 4.51404
H 4.95231 -0.33824 4.95696
H 2.13001 0.02498 4.85581
H 2.75220 1.53480 5.41991
H 5.00452 5.60936 1.07662
H 5.81291 6.52072 -0.15427
H 6.46119 6.60390 1.50090
H 7.74700 7.51506 -0.65024
H 9.55388 7.93675 -0.58621
H 8.66288 7.30377 0.82761
H 11.78623 1.70607 -2.27093
H 10.93896 -1.03692 -3.05510
H 11.38787 1.96596 -4.48517
H 9.64167 1.73415 -4.12037
H 10.58154 0.40183 -4.56446
H 13.31705 -0.39039 -2.50876
H 12.76205 -1.87529 -1.75908
H 13.26669 0.80852 -0.69859
H 13.76943 -0.76652 0.01648
H 12.07133 -0.13526 0.19608
H 9.20946 -5.52611 1.02816
H 9.97581 -4.71707 -0.37695
H 8.25343 -5.25505 -0.50441
H 4.46399 -3.28855 2.33769
H 3.21810 -4.43354 6.30249
H 3.15101 -2.55973 6.39356
H 4.58487 -3.55581 6.74583

