%nproc=24
%mem=175gb
#p cam-b3lyp/Def2SVP td=(nstates=5)

TDDFT excited states in gaussian

0 1
Mg 0.00000 0.00000 0.00000
C -0.21700 -2.21800 2.80100
C -1.25500 2.44200 2.02600
C -0.24500 1.85000 -2.56400
C 0.14600 -2.82400 -2.03700
N -0.61700 -0.00900 2.12600
C -0.59400 -0.90800 3.10500
C -0.93600 -0.30900 4.50200
C -1.77300 0.96400 4.03200
C -1.15500 1.16800 2.66000
C -3.26300 0.68500 3.86300
C 0.34500 0.11000 5.29900
C 0.12400 0.39700 6.78700
H 1.16800 0.03300 7.73300
N -0.18500 1.96100 -0.15200
C -0.70300 2.80000 0.77700
C -0.62000 4.15600 0.19300
C -0.18700 4.01500 -1.22500
C -0.21400 2.58300 -1.38000
C -0.88700 5.40600 0.97400
C 0.18100 5.01300 -2.27700
O 0.30300 4.69000 -3.50800
C 0.31000 6.41400 -1.83700
N -0.26500 -0.41300 -2.02900
C -0.27900 0.56900 -2.93700
C -0.19600 0.02400 -4.33200
C 0.12400 -1.53300 -4.18000
C 0.08600 -1.63200 -2.63500
C -1.45100 0.20500 -5.19700
C 1.37300 -2.07000 -4.92300
C 2.62600 -1.49000 -4.30600
N 0.15000 -2.14400 0.30300
C 0.17300 -3.13600 -0.68800
C 0.17300 -4.43800 0.00400
C 0.13300 -4.11100 1.35800
C 0.08300 -2.69500 1.50200
C 0.14900 -5.71500 -0.62300
C 0.09600 -4.62900 2.71600
O 0.20800 -5.74700 3.22100
C -0.25500 -3.42800 3.70100
C 0.71700 -3.48200 4.84800
O 1.93100 -3.25500 4.66900
O 0.03800 -3.55600 6.00300
C 0.94300 -3.58300 7.18300
H -1.85900 3.22000 2.49700
H -0.21800 2.45300 -3.47400
H 0.27600 -3.74700 -2.60500
H -1.55400 -0.94900 5.13200
H -1.58500 1.83100 4.66500
H -3.48400 -0.37700 3.96900
H -3.51100 1.02700 2.85800
H -3.85200 1.30100 4.54300
H 0.66900 1.09600 4.96600
H 1.13000 -0.63900 5.18900
H -0.84400 0.02600 7.12500
H 0.06200 1.47700 6.92100
H -1.34400 5.18600 1.93800
H -1.65100 5.96300 0.43200
H 0.00700 6.02000 1.08400
H -0.63500 6.74400 -1.40500
H 0.66500 6.97000 -2.70400
H 1.04800 6.46600 -1.03600
H 0.60800 0.50100 -4.89100
H -0.69200 -2.15600 -4.54700
H -1.26700 0.74000 -6.12900
H -2.20400 0.71400 -4.59600
H -1.96700 -0.72000 -5.45300
H 1.35600 -1.75900 -5.96700
H 1.45200 -3.15700 -4.90200
H 2.71400 -0.52200 -4.79800
H 3.48700 -2.12100 -4.52900
H 2.49500 -1.30300 -3.24000
H 0.86700 -6.33300 -0.08400
H 0.40400 -5.64200 -1.68000
H -0.89100 -5.99900 -0.46300
H -1.28300 -3.58100 4.02800
H 0.69800 -4.47800 7.75500
H 0.83300 -2.61900 7.68000
H 2.00000 -3.75400 6.97600
Mg 31.52392 2.83985 2.40137
C 32.71262 5.13577 4.89031
C 30.93677 0.63132 4.93362
C 30.89618 0.63936 0.20337
C 33.23668 4.73738 0.03251
N 31.82595 2.98137 4.58792
C 32.22629 3.92522 5.42650
C 32.02317 3.58127 6.92650
C 32.01382 1.97987 6.80688
C 31.52860 1.84531 5.36496
C 33.39828 1.36097 6.90467
C 30.66077 4.12353 7.48491
C 30.53383 4.09528 9.00966
H 29.79954 5.17284 9.66704
N 30.54849 1.11792 2.54994
C 30.38854 0.36641 3.65941
C 29.61396 -0.81157 3.23921
C 29.47127 -0.77528 1.75832
C 30.33645 0.34212 1.43743
C 29.02474 -1.78838 4.21495
C 28.69583 -1.61617 0.78992
O 28.90562 -1.55526 -0.47305
C 27.74954 -2.58021 1.37015
N 32.16685 2.58130 0.44124
C 31.69999 1.56987 -0.31174
C 32.08729 1.74474 -1.76081
C 32.70796 3.21492 -1.86523
C 32.65142 3.61985 -0.37586
C 33.08983 0.72927 -2.30865
C 32.07949 4.17120 -2.91558
C 30.66514 4.52201 -2.51314
N 32.60158 4.71245 2.39230
C 33.26338 5.31043 1.29753
C 33.94778 6.51595 1.80816
C 33.65333 6.52308 3.17993
C 32.85942 5.39021 3.50523
C 34.75754 7.40047 1.04133
C 33.84244 7.22561 4.42868
O 34.35364 8.29631 4.75428
C 33.34729 6.29037 5.61467
C 32.47432 7.11350 6.52181
O 31.38666 7.56071 6.11734
O 32.96113 7.05417 7.77475
C 32.12268 7.84630 8.71356
H 30.92781 -0.21463 5.62149
H 30.61812 -0.03000 -0.61401
H 33.71017 5.43550 -0.66111
H 32.82714 3.90071 7.57871
H 31.29705 1.53669 7.49331
H 34.17481 2.11125 6.92015
H 33.50024 0.72890 6.03224
H 33.45230 0.69278 7.76892
H 29.85958 3.42291 7.21666
H 30.46917 5.11557 7.12468
H 31.50109 3.93392 9.50088
H 29.94070 3.22219 9.29237
H 29.43558 -1.64805 5.22238
H 29.36923 -2.78472 3.91748
H 27.93270 -1.77732 4.21458
H 28.28518 -3.26126 2.02721
H 27.22655 -3.02379 0.52068
H 27.03494 -2.03509 1.99688
H 31.21766 1.68395 -2.40359
H 33.77173 3.18927 -2.14375
H 32.71647 0.18155 -3.19447
H 33.34544 0.03972 -1.51509
H 34.06107 1.13943 -2.58006
H 32.01179 3.67503 -3.88686
H 32.64484 5.08583 -3.05989
H 30.08476 3.67244 -2.88526
H 30.35184 5.45107 -2.98508
H 30.55956 4.54081 -1.42220
H 34.48483 8.40549 1.33469
H 34.61568 7.24475 -0.02609
H 35.75234 7.09088 1.37269
H 34.23353 5.91594 6.12845
H 32.78639 8.56186 9.20867
H 31.61200 7.10483 9.35635
H 31.37958 8.50858 8.28505

