%nproc=24
%mem=175gb
#p cam-b3lyp/Def2SVP td=(nstates=5)

TDDFT excited states in gaussian

0 1
Mg 15.77267 1.42302 1.20530
C 15.63139 -1.29095 3.54912
C 14.52233 3.42081 3.67108
C 15.46054 3.72554 -0.95534
C 15.91099 -0.96004 -1.33391
N 15.19252 1.00326 3.29802
C 15.24072 -0.05160 4.09759
C 14.92530 0.25478 5.58628
C 14.05600 1.58892 5.37826
C 14.64569 2.06035 4.05059
C 12.57511 1.31642 5.17320
C 16.22039 0.53811 6.42562
C 16.01628 0.53967 7.94223
H 17.08756 0.02255 8.78924
N 15.56232 3.38265 1.43806
C 15.05759 4.02496 2.51228
C 15.09945 5.45762 2.18075
C 15.51679 5.59813 0.75921
C 15.50911 4.20981 0.34376
C 14.83921 6.53504 3.19311
C 15.85315 6.78653 -0.08978
O 15.95903 6.69553 -1.36388
C 15.96288 8.07800 0.60416
N 15.48319 1.39500 -0.85328
C 15.43427 2.53775 -1.56014
C 15.49672 2.26440 -3.04398
C 15.84284 0.70901 -3.18011
C 15.83214 0.31572 -1.68659
C 14.22350 2.57300 -3.83142
C 17.08609 0.33675 -4.03360
C 18.34514 0.81675 -3.34820
N 15.95879 -0.72686 1.09836
C 15.97046 -1.52513 -0.06642
C 15.99943 -2.93540 0.37256
C 15.97919 -2.85966 1.77340
C 15.91997 -1.49886 2.17862
C 15.99048 -4.07322 -0.48266
C 15.98374 -3.62179 3.00134
O 16.11167 -4.81228 3.28439
C 15.63108 -2.64433 4.20408
C 16.62349 -2.88886 5.30764
O 17.82741 -2.62259 5.14545
O 15.95959 -3.18964 6.43863
C 16.90077 -3.42990 7.56481
H 13.92329 4.08201 4.29786
H 15.46406 4.48392 -1.74168
H 16.05410 -1.75970 -2.06380
H 14.33328 -0.50001 6.08984
H 14.25333 2.31520 6.16243
H 12.36849 0.26033 5.08307
H 12.30412 1.83404 4.26233
H 11.99163 1.78481 5.97101
H 16.52290 1.58249 6.27567
H 17.00056 -0.15105 6.16672
H 15.05336 0.09981 8.22900
H 15.94946 1.57596 8.28230
H 14.39540 6.12711 4.10964
H 14.05882 7.18202 2.77808
H 15.72466 7.13904 3.40248
H 15.02390 8.29924 1.10600
H 16.29653 8.78952 -0.15366
H 16.72503 7.99110 1.38658
H 16.28512 2.84202 -3.51077
H 15.02508 0.14993 -3.65816
H 14.38512 3.28867 -4.65953
H 13.47920 2.95014 -3.14271
H 13.72370 1.70577 -4.25959
H 17.04686 0.84349 -5.00098
H 17.17224 -0.72667 -4.23035
H 18.40601 1.86642 -3.65081
H 19.20918 0.25471 -3.69690
H 18.23291 0.79396 -2.25800
H 16.71875 -4.76741 -0.08490
H 16.22053 -3.79994 -1.51037
H 14.95257 -4.39646 -0.36638
H 14.60939 -2.86423 4.51615
H 16.67412 -4.42327 7.96422
H 16.77293 -2.57048 8.24951
H 17.95270 -3.53312 7.32553

