%nproc=24
%mem=175gb
#p cam-b3lyp/Def2SVP td=(nstates=5)

TDDFT excited states in gaussian

0 1
Mg 0.00000 0.00000 0.00000
C -0.21700 -2.21800 2.80100
C -1.25500 2.44200 2.02600
C -0.24500 1.85000 -2.56400
C 0.14600 -2.82400 -2.03700
N -0.61700 -0.00900 2.12600
C -0.59400 -0.90800 3.10500
C -0.93600 -0.30900 4.50200
C -1.77300 0.96400 4.03200
C -1.15500 1.16800 2.66000
C -3.26300 0.68500 3.86300
C 0.34500 0.11000 5.29900
C 0.12400 0.39700 6.78700
H 1.16800 0.03300 7.73300
N -0.18500 1.96100 -0.15200
C -0.70300 2.80000 0.77700
C -0.62000 4.15600 0.19300
C -0.18700 4.01500 -1.22500
C -0.21400 2.58300 -1.38000
C -0.88700 5.40600 0.97400
C 0.18100 5.01300 -2.27700
O 0.30300 4.69000 -3.50800
C 0.31000 6.41400 -1.83700
N -0.26500 -0.41300 -2.02900
C -0.27900 0.56900 -2.93700
C -0.19600 0.02400 -4.33200
C 0.12400 -1.53300 -4.18000
C 0.08600 -1.63200 -2.63500
C -1.45100 0.20500 -5.19700
C 1.37300 -2.07000 -4.92300
C 2.62600 -1.49000 -4.30600
N 0.15000 -2.14400 0.30300
C 0.17300 -3.13600 -0.68800
C 0.17300 -4.43800 0.00400
C 0.13300 -4.11100 1.35800
C 0.08300 -2.69500 1.50200
C 0.14900 -5.71500 -0.62300
C 0.09600 -4.62900 2.71600
O 0.20800 -5.74700 3.22100
C -0.25500 -3.42800 3.70100
C 0.71700 -3.48200 4.84800
O 1.93100 -3.25500 4.66900
O 0.03800 -3.55600 6.00300
C 0.94300 -3.58300 7.18300
H -1.85900 3.22000 2.49700
H -0.21800 2.45300 -3.47400
H 0.27600 -3.74700 -2.60500
H -1.55400 -0.94900 5.13200
H -1.58500 1.83100 4.66500
H -3.48400 -0.37700 3.96900
H -3.51100 1.02700 2.85800
H -3.85200 1.30100 4.54300
H 0.66900 1.09600 4.96600
H 1.13000 -0.63900 5.18900
H -0.84400 0.02600 7.12500
H 0.06200 1.47700 6.92100
H -1.34400 5.18600 1.93800
H -1.65100 5.96300 0.43200
H 0.00700 6.02000 1.08400
H -0.63500 6.74400 -1.40500
H 0.66500 6.97000 -2.70400
H 1.04800 6.46600 -1.03600
H 0.60800 0.50100 -4.89100
H -0.69200 -2.15600 -4.54700
H -1.26700 0.74000 -6.12900
H -2.20400 0.71400 -4.59600
H -1.96700 -0.72000 -5.45300
H 1.35600 -1.75900 -5.96700
H 1.45200 -3.15700 -4.90200
H 2.71400 -0.52200 -4.79800
H 3.48700 -2.12100 -4.52900
H 2.49500 -1.30300 -3.24000
H 0.86700 -6.33300 -0.08400
H 0.40400 -5.64200 -1.68000
H -0.89100 -5.99900 -0.46300
H -1.28300 -3.58100 4.02800
H 0.69800 -4.47800 7.75500
H 0.83300 -2.61900 7.68000
H 2.00000 -3.75400 6.97600
Mg 15.77313 1.41694 1.20536
C 13.53730 0.21869 3.74393
C 16.77491 3.80504 3.42527
C 17.41821 2.77103 -1.14571
C 13.81840 -0.28540 -1.12418
N 15.16190 1.85268 3.28594
C 14.34830 1.29195 4.16797
C 14.46549 1.86463 5.60598
C 15.05792 3.31191 5.24090
C 15.74050 2.97003 3.91807
C 13.98299 4.35114 4.96912
C 15.46277 1.04376 6.49683
C 15.39418 1.35542 7.99347
H 15.60710 0.26559 8.94184
N 17.26842 2.72025 1.26909
C 17.54053 3.59884 2.25667
C 18.72994 4.34393 1.81586
C 19.03972 3.94704 0.41543
C 17.88325 3.12831 0.11152
C 19.49673 5.26266 2.72218
C 20.18082 4.26372 -0.50316
O 20.12742 4.00485 -1.75734
C 21.32460 4.97043 0.09168
N 15.52172 1.44325 -0.85823
C 16.40989 2.06308 -1.65503
C 16.17562 1.71674 -3.10609
C 15.09250 0.54015 -3.09749
C 14.80953 0.46776 -1.58089
C 15.67816 2.85960 -3.99085
C 15.47019 -0.76956 -3.84227
C 16.60358 -1.46419 -3.12234
N 14.11175 0.03772 1.28042
C 13.42753 -0.53388 0.18535
C 12.30020 -1.31414 0.73558
C 12.39385 -1.12207 2.12224
C 13.48924 -0.26509 2.41412
C 11.33508 -2.03171 -0.02584
C 11.80873 -1.44083 3.40471
O 10.91345 -2.19252 3.78834
C 12.44659 -0.48494 4.50280
C 12.84610 -1.33163 5.68010
O 13.74659 -2.18231 5.57025
O 12.25518 -0.85102 6.78924
C 12.62966 -1.65118 7.98562
H 16.99496 4.72920 3.96044
H 18.01843 3.12288 -1.98799
H 13.22140 -0.92426 -1.77849
H 13.52373 1.97003 6.13110
H 15.79064 3.63556 5.97557
H 12.99564 3.91416 4.95061
H 14.22516 4.77976 4.00544
H 14.05894 5.16962 5.69067
H 16.48785 1.37284 6.28318
H 15.33443 -0.00972 6.34085
H 14.49256 1.92228 8.25556
H 16.21693 2.02880 8.24577
H 18.93687 5.48207 3.63968
H 19.56962 6.22865 2.21090
H 20.50407 4.89911 2.93609
H 20.98578 5.91217 0.51687
H 22.07561 5.02807 -0.69859
H 21.71221 4.37112 0.92307
H 17.08516 1.35373 -3.56874
H 14.15239 0.84825 -3.57822
H 16.33226 3.05383 -4.86177
H 15.58412 3.74783 -3.38033
H 14.66814 2.73761 -4.37837
H 15.83394 -0.54226 -4.84734
H 14.64062 -1.46056 -3.94863
H 17.49043 -0.94866 -3.50290
H 16.62467 -2.52293 -3.37268
H 16.55433 -1.28194 -2.04252
H 11.19317 -2.98336 0.46885
H 11.65904 -2.16278 -1.05620
H 10.48115 -1.35357 0.05286
H 11.69274 0.25692 4.76910
H 11.69739 -1.98990 8.44805
H 13.28302 -0.99529 8.59116
H 13.13784 -2.59378 7.81917

