%nproc=24
%mem=175gb
#p cam-b3lyp/Def2SVP td=(nstates=5)

TDDFT excited states in gaussian

0 1
Mg 0.00000 0.00000 0.00000
C -0.21700 -2.21800 2.80100
C -1.25500 2.44200 2.02600
C -0.24500 1.85000 -2.56400
C 0.14600 -2.82400 -2.03700
N -0.61700 -0.00900 2.12600
C -0.59400 -0.90800 3.10500
C -0.93600 -0.30900 4.50200
C -1.77300 0.96400 4.03200
C -1.15500 1.16800 2.66000
C -3.26300 0.68500 3.86300
C 0.34500 0.11000 5.29900
C 0.12400 0.39700 6.78700
H 1.16800 0.03300 7.73300
N -0.18500 1.96100 -0.15200
C -0.70300 2.80000 0.77700
C -0.62000 4.15600 0.19300
C -0.18700 4.01500 -1.22500
C -0.21400 2.58300 -1.38000
C -0.88700 5.40600 0.97400
C 0.18100 5.01300 -2.27700
O 0.30300 4.69000 -3.50800
C 0.31000 6.41400 -1.83700
N -0.26500 -0.41300 -2.02900
C -0.27900 0.56900 -2.93700
C -0.19600 0.02400 -4.33200
C 0.12400 -1.53300 -4.18000
C 0.08600 -1.63200 -2.63500
C -1.45100 0.20500 -5.19700
C 1.37300 -2.07000 -4.92300
C 2.62600 -1.49000 -4.30600
N 0.15000 -2.14400 0.30300
C 0.17300 -3.13600 -0.68800
C 0.17300 -4.43800 0.00400
C 0.13300 -4.11100 1.35800
C 0.08300 -2.69500 1.50200
C 0.14900 -5.71500 -0.62300
C 0.09600 -4.62900 2.71600
O 0.20800 -5.74700 3.22100
C -0.25500 -3.42800 3.70100
C 0.71700 -3.48200 4.84800
O 1.93100 -3.25500 4.66900
O 0.03800 -3.55600 6.00300
C 0.94300 -3.58300 7.18300
H -1.85900 3.22000 2.49700
H -0.21800 2.45300 -3.47400
H 0.27600 -3.74700 -2.60500
H -1.55400 -0.94900 5.13200
H -1.58500 1.83100 4.66500
H -3.48400 -0.37700 3.96900
H -3.51100 1.02700 2.85800
H -3.85200 1.30100 4.54300
H 0.66900 1.09600 4.96600
H 1.13000 -0.63900 5.18900
H -0.84400 0.02600 7.12500
H 0.06200 1.47700 6.92100
H -1.34400 5.18600 1.93800
H -1.65100 5.96300 0.43200
H 0.00700 6.02000 1.08400
H -0.63500 6.74400 -1.40500
H 0.66500 6.97000 -2.70400
H 1.04800 6.46600 -1.03600
H 0.60800 0.50100 -4.89100
H -0.69200 -2.15600 -4.54700
H -1.26700 0.74000 -6.12900
H -2.20400 0.71400 -4.59600
H -1.96700 -0.72000 -5.45300
H 1.35600 -1.75900 -5.96700
H 1.45200 -3.15700 -4.90200
H 2.71400 -0.52200 -4.79800
H 3.48700 -2.12100 -4.52900
H 2.49500 -1.30300 -3.24000
H 0.86700 -6.33300 -0.08400
H 0.40400 -5.64200 -1.68000
H -0.89100 -5.99900 -0.46300
H -1.28300 -3.58100 4.02800
H 0.69800 -4.47800 7.75500
H 0.83300 -2.61900 7.68000
H 2.00000 -3.75400 6.97600
Mg 8.92688 0.80052 0.68531
C 8.63395 3.52098 3.00744
C 9.85915 -1.15297 3.32147
C 9.62796 -1.49403 -1.39098
C 9.09266 3.17432 -1.86093
N 9.17662 1.24152 2.83831
C 8.97737 2.29546 3.61538
C 9.07776 2.00141 5.13624
C 10.00952 0.69527 5.06764
C 9.63842 0.20343 3.67013
C 11.49521 1.01440 5.08280
C 7.68192 1.67828 5.77597
C 7.65862 1.68538 7.30605
H 6.45788 2.16942 7.98163
N 9.16142 -1.15110 0.95871
C 9.52093 -1.77550 2.09983
C 9.57347 -3.20924 1.77457
C 9.37633 -3.36499 0.30774
C 9.40225 -1.97773 -0.11049
C 9.71408 -4.27638 2.82092
C 9.20697 -4.56470 -0.57443
O 9.28857 -4.47895 -1.85068
C 9.03583 -5.85801 0.10348
N 9.51768 0.83475 -1.30771
C 9.70661 -0.30688 -1.99248
C 9.85659 -0.03780 -3.47082
C 9.48613 1.50562 -3.66632
C 9.26275 1.90120 -2.19017
C 11.24159 -0.30690 -4.05882
C 8.37232 1.83695 -4.69702
C 7.04108 1.31817 -4.20299
N 8.69169 2.94324 0.53874
C 8.82812 3.73905 -0.61977
C 8.69031 5.14833 -0.19860
C 8.50475 5.07529 1.19018
C 8.54563 3.71764 1.60806
C 8.79057 6.28462 -1.05002
C 8.29422 5.83866 2.39917
O 8.08860 7.02488 2.65280
C 8.49480 4.87463 3.64689
C 7.34244 5.08909 4.58954
O 6.18484 4.78446 4.25225
O 7.82141 5.41245 5.80461
C 6.71647 5.62429 6.77726
H 10.37887 -1.79390 4.03420
H 9.76487 -2.25327 -2.16447
H 9.03457 3.96797 -2.60887
H 9.56463 2.77536 5.71739
H 9.72075 -0.03579 5.81832
H 11.67985 2.07639 5.01783
H 11.91441 0.50434 4.22538
H 11.96815 0.56594 5.96118
H 7.43776 0.62459 5.58923
H 6.92769 2.34192 5.40000
H 8.55411 2.15604 7.72975
H 7.70654 0.65223 7.65864
H 10.00399 -3.85323 3.79061
H 10.56724 -4.89884 2.53019
H 8.82665 -4.90792 2.90037
H 9.89636 -6.04857 0.74038
H 8.84072 -6.58086 -0.69105
H 8.16365 -5.79424 0.76367
H 9.16462 -0.64085 -4.04581
H 10.34793 2.08971 -4.02123
H 11.22708 -1.02855 -4.89733
H 11.88683 -0.65921 -3.26505
H 11.77208 0.57515 -4.41345
H 8.57049 1.33032 -5.64476
H 8.28317 2.89681 -4.91090
H 7.05860 0.26666 -4.50482
H 6.22125 1.85196 -4.67941
H 6.98950 1.34609 -3.10836
H 7.99002 6.95589 -0.76892
H 8.72424 6.00269 -2.09878
H 9.78912 6.64085 -0.78309
H 9.45148 5.12734 4.10566
H 6.85021 6.62494 7.19977
H 6.76804 4.77036 7.47862
H 5.70901 5.69368 6.38401

