%nproc=24
%mem=175gb
#p cam-b3lyp/Def2SVP td=(nstates=5)

TDDFT excited states in gaussian

0 1
Mg 0.00000 0.00000 0.00000
C -0.21700 -2.21800 2.80100
C -1.25500 2.44200 2.02600
C -0.24500 1.85000 -2.56400
C 0.14600 -2.82400 -2.03700
N -0.61700 -0.00900 2.12600
C -0.59400 -0.90800 3.10500
C -0.93600 -0.30900 4.50200
C -1.77300 0.96400 4.03200
C -1.15500 1.16800 2.66000
C -3.26300 0.68500 3.86300
C 0.34500 0.11000 5.29900
C 0.12400 0.39700 6.78700
H 1.16800 0.03300 7.73300
N -0.18500 1.96100 -0.15200
C -0.70300 2.80000 0.77700
C -0.62000 4.15600 0.19300
C -0.18700 4.01500 -1.22500
C -0.21400 2.58300 -1.38000
C -0.88700 5.40600 0.97400
C 0.18100 5.01300 -2.27700
O 0.30300 4.69000 -3.50800
C 0.31000 6.41400 -1.83700
N -0.26500 -0.41300 -2.02900
C -0.27900 0.56900 -2.93700
C -0.19600 0.02400 -4.33200
C 0.12400 -1.53300 -4.18000
C 0.08600 -1.63200 -2.63500
C -1.45100 0.20500 -5.19700
C 1.37300 -2.07000 -4.92300
C 2.62600 -1.49000 -4.30600
N 0.15000 -2.14400 0.30300
C 0.17300 -3.13600 -0.68800
C 0.17300 -4.43800 0.00400
C 0.13300 -4.11100 1.35800
C 0.08300 -2.69500 1.50200
C 0.14900 -5.71500 -0.62300
C 0.09600 -4.62900 2.71600
O 0.20800 -5.74700 3.22100
C -0.25500 -3.42800 3.70100
C 0.71700 -3.48200 4.84800
O 1.93100 -3.25500 4.66900
O 0.03800 -3.55600 6.00300
C 0.94300 -3.58300 7.18300
H -1.85900 3.22000 2.49700
H -0.21800 2.45300 -3.47400
H 0.27600 -3.74700 -2.60500
H -1.55400 -0.94900 5.13200
H -1.58500 1.83100 4.66500
H -3.48400 -0.37700 3.96900
H -3.51100 1.02700 2.85800
H -3.85200 1.30100 4.54300
H 0.66900 1.09600 4.96600
H 1.13000 -0.63900 5.18900
H -0.84400 0.02600 7.12500
H 0.06200 1.47700 6.92100
H -1.34400 5.18600 1.93800
H -1.65100 5.96300 0.43200
H 0.00700 6.02000 1.08400
H -0.63500 6.74400 -1.40500
H 0.66500 6.97000 -2.70400
H 1.04800 6.46600 -1.03600
H 0.60800 0.50100 -4.89100
H -0.69200 -2.15600 -4.54700
H -1.26700 0.74000 -6.12900
H -2.20400 0.71400 -4.59600
H -1.96700 -0.72000 -5.45300
H 1.35600 -1.75900 -5.96700
H 1.45200 -3.15700 -4.90200
H 2.71400 -0.52200 -4.79800
H 3.48700 -2.12100 -4.52900
H 2.49500 -1.30300 -3.24000
H 0.86700 -6.33300 -0.08400
H 0.40400 -5.64200 -1.68000
H -0.89100 -5.99900 -0.46300
H -1.28300 -3.58100 4.02800
H 0.69800 -4.47800 7.75500
H 0.83300 -2.61900 7.68000
H 2.00000 -3.75400 6.97600
Mg 31.52450 2.83635 2.40176
C 31.70117 5.53022 4.76627
C 32.02158 0.70535 5.01832
C 31.82367 0.48061 0.29738
C 32.18281 5.17259 -0.09909
N 31.80993 3.19203 4.56608
C 31.79658 4.25352 5.35818
C 31.80996 3.92431 6.87509
C 32.48140 2.46751 6.79907
C 32.05232 2.07398 5.38709
C 33.99998 2.50163 6.84473
C 30.36593 3.86010 7.48555
C 30.31415 3.84977 9.01492
H 29.21240 4.54112 9.67873
N 31.38341 0.87174 2.64461
C 31.59681 0.17481 3.78040
C 31.38594 -1.23852 3.43084
C 31.19210 -1.33366 1.95840
C 31.48600 0.02982 1.56518
C 31.30320 -2.32780 4.46043
C 30.81820 -2.46758 1.05251
O 30.93964 -2.38060 -0.22049
C 30.39418 -3.71519 1.70455
N 32.15049 2.78724 0.41983
C 32.13545 1.64026 -0.28169
C 32.36241 1.89731 -1.75234
C 32.29192 3.48545 -1.92678
C 32.11759 3.89498 -0.44784
C 33.68370 1.38119 -2.32172
C 31.28061 4.03467 -2.96998
C 29.86620 3.76825 -2.50753
N 31.69829 4.98696 2.28908
C 32.00441 5.75932 1.14723
C 32.12507 7.16328 1.59081
C 31.90171 7.10672 2.97479
C 31.67897 5.75978 3.36929
C 32.45346 8.27246 0.76135
C 31.81423 7.87884 4.19335
O 31.82977 9.07885 4.46437
C 31.80577 6.87671 5.42706
C 30.69568 7.29043 6.35392
O 29.50838 7.21349 5.99197
O 31.20270 7.50081 7.58235
C 30.13810 7.90263 8.53995
H 32.39769 -0.03183 5.72824
H 31.83101 -0.27979 -0.48697
H 32.28939 5.97355 -0.83379
H 32.42177 4.58471 7.47786
H 32.04587 1.79314 7.53181
H 34.38177 3.51085 6.80159
H 34.33293 1.93412 5.98560
H 34.36297 1.95992 7.72286
H 29.93222 2.87379 7.27621
H 29.75713 4.65886 7.10876
H 31.27348 4.13778 9.46178
H 30.16048 2.82112 9.34999
H 31.64812 -1.98043 5.44214
H 32.03006 -3.09525 4.17309
H 30.31169 -2.78246 4.51386
H 31.19095 -4.07301 2.35231
H 30.08270 -4.37719 0.89424
H 29.53657 -3.49809 2.35107
H 31.58112 1.44318 -2.34938
H 33.25482 3.90223 -2.25686
H 33.55068 0.68707 -3.17295
H 34.23561 0.90273 -1.52359
H 34.37711 2.15282 -2.65182
H 31.39893 3.51332 -3.92305
H 31.39606 5.09533 -3.16661
H 29.69216 2.73655 -2.82753
H 29.17060 4.45323 -2.98813
H 29.79915 3.78984 -1.41360
H 31.78762 9.07811 1.04079
H 32.35617 8.02290 -0.29317
H 33.49564 8.43096 1.05121
H 32.78361 6.93868 5.90618
H 30.44877 8.85425 8.98221
H 30.01473 7.04436 9.22691
H 29.16950 8.16560 8.13117

