%nproc=24
%mem=175gb
#p cam-b3lyp/Def2SVP td=(nstates=5)

TDDFT excited states in gaussian

0 1
Mg 31.54131 2.84263 2.39074
C 34.04151 0.68658 3.79769
C 33.20763 5.45627 3.81442
C 29.12092 4.71431 1.55053
C 29.50081 0.03582 2.06848
N 33.37597 2.93281 3.62288
C 34.27586 2.05586 4.04180
C 35.53546 2.68786 4.69260
C 34.89475 4.08900 5.14556
C 33.77542 4.19158 4.11152
C 34.26528 4.04401 6.52798
C 36.70039 2.89535 3.66211
C 38.06017 3.21868 4.28518
H 39.26225 2.69281 3.64414
N 31.44537 4.81716 2.21585
C 32.21285 5.72846 2.84972
C 31.73361 7.04331 2.39622
C 30.51304 6.83824 1.56985
C 30.29574 5.41925 1.76824
C 32.46577 8.32103 2.68743
C 29.67221 7.76816 0.74861
O 28.52032 7.42123 0.30631
C 30.19588 9.12840 0.55629
N 29.51859 2.47709 2.07878
C 28.69445 3.45662 1.66739
C 27.35473 2.90138 1.24637
C 27.53357 1.31223 1.23209
C 28.98311 1.21598 1.75645
C 26.17072 3.27201 2.13919
C 27.17436 0.57542 -0.08728
C 28.15832 0.95018 -1.17207
N 31.77179 0.71218 2.66662
C 30.78203 -0.28135 2.50123
C 31.38195 -1.56657 2.91441
C 32.68210 -1.22533 3.31649
C 32.87198 0.17674 3.18369
C 30.71939 -2.82626 2.93244
C 33.93359 -1.73088 3.83311
O 34.39071 -2.85029 4.06047
C 34.82785 -0.49778 4.28715
C 36.21142 -0.69805 3.73203
O 36.40850 -0.68034 2.50425
O 37.10078 -0.65994 4.74097
C 38.48876 -0.84290 4.23911
H 33.52232 6.31771 4.40416
H 28.28738 5.29822 1.15337
H 28.96166 -0.89976 1.90511
H 35.91559 2.15620 5.55667
H 35.60252 4.90480 5.02352
H 34.24833 3.04211 6.93053
H 33.25781 4.41935 6.40481
H 34.76997 4.74867 7.19510
H 36.52377 3.82395 3.10422
H 36.79251 2.04491 3.01489
H 38.07877 3.01487 5.36271
H 38.22744 4.29611 4.21328
H 33.23723 8.17686 3.45390
H 31.74571 9.00348 3.15178
H 32.86792 8.79063 1.78719
H 30.34062 9.60002 1.52536
H 29.50012 9.61509 -0.12995
H 31.18453 9.05983 0.08886
H 27.09404 3.23465 0.24934
H 26.89485 0.82357 1.98248
H 25.35364 3.77931 1.59227
H 26.53326 3.89581 2.94540
H 25.71899 2.43973 2.67626
H 26.18892 0.88934 -0.44015
H 27.15133 -0.50453 0.01359
H 27.76070 1.89702 -1.54953
H 28.17671 0.19109 -1.95148
H 29.14978 1.15350 -0.75098
H 31.41261 -3.54855 2.52228
H 29.79248 -2.79612 2.36349
H 30.53920 -2.93652 4.00512
H 34.82372 -0.47402 5.37756
H 38.91746 -1.68826 4.78617
H 38.98277 0.13924 4.36200
H 38.61175 -1.17048 3.21343

