%nproc=24
%mem=175gb
#p cam-b3lyp/Def2SVP td=(nstates=5)

TDDFT excited states in gaussian

0 1
Mg 7.88848 0.71462 0.60656
C 7.34967 -1.54190 3.34460
C 6.35271 3.11668 2.47901
C 7.94239 2.59841 -1.94606
C 8.32445 -2.08005 -1.42948
N 7.00820 0.67152 2.63523
C 6.91657 -0.22521 3.60571
C 6.40178 0.33961 4.95683
C 5.60423 1.61556 4.39582
C 6.38716 1.84488 3.10466
C 4.16080 1.31052 4.03137
C 7.57199 0.76746 5.91054
C 7.15579 1.03726 7.35821
H 8.08339 0.67856 8.42749
N 7.69644 2.68443 0.45985
C 7.06124 3.50648 1.32127
C 7.18534 4.85789 0.75342
C 7.80270 4.74484 -0.59595
C 7.81906 3.30491 -0.75854
C 6.81174 6.09733 1.51345
C 8.28523 5.76440 -1.58278
O 8.56773 5.44945 -2.79267
C 8.32810 7.15832 -1.11733
N 7.89209 0.32271 -1.43519
C 7.97212 1.32235 -2.33087
C 8.23670 0.79080 -3.71934
C 8.55956 -0.76401 -3.52985
C 8.32816 -0.88685 -2.00776
C 7.09560 0.95472 -4.72304
C 9.90120 -1.28093 -4.11762
C 11.06242 -0.68677 -3.35347
N 8.03400 -1.42020 0.90565
C 8.19012 -2.41195 -0.08740
C 8.12150 -3.72230 0.59136
C 7.90549 -3.39991 1.93965
C 7.82367 -1.98890 2.08751
C 8.20500 -4.99348 -0.04365
C 7.71746 -3.93275 3.26985
O 7.77430 -5.05433 3.77242
C 7.22299 -2.75805 4.21956
C 8.04313 -2.80309 5.47966
O 9.26416 -2.56927 5.44777
O 7.21880 -2.89928 6.53872
C 7.98515 -2.93613 7.81276
H 5.68786 3.87812 2.88776
H 8.07592 3.20570 -2.84430
H 8.54919 -2.99618 -1.97982
H 5.72587 -0.31440 5.49459
H 5.70691 2.46921 5.06073
H 3.94264 0.25507 4.09891
H 4.03424 1.65871 3.01461
H 3.48237 1.91245 4.64271
H 7.91868 1.76895 5.62496
H 8.36342 0.04367 5.89099
H 6.15131 0.65471 7.57643
H 7.06754 2.11734 7.49836
H 6.23284 5.85783 2.41396
H 6.11423 6.66038 0.88391
H 7.67356 6.72918 1.73862
H 7.33348 7.46450 -0.80197
H 8.78315 7.72466 -1.93223
H 8.96967 7.21151 -0.23066
H 9.09733 1.27701 -4.16208
H 7.80381 -1.39916 -4.01488
H 7.39044 1.51265 -5.63181
H 6.27114 1.44748 -4.22506
H 6.63977 0.02524 -5.05990
H 10.01172 -0.95336 -5.15427
H 9.98767 -2.36235 -4.11064
H 11.19166 0.29283 -3.82334
H 11.95273 -1.30130 -3.47071
H 10.79677 -0.51635 -2.30369
H 8.85218 -5.60607 0.56985
H 8.58469 -4.90625 -1.05953
H 7.15332 -5.29144 -0.02267
H 6.16229 -2.91965 4.41547
H 7.67957 -3.84324 8.34328
H 7.78340 -1.96918 8.31082
H 9.05741 -3.07965 7.74869

