%nproc=24
%mem=175gb
#p cam-b3lyp/Def2SVP td=(nstates=5)

TDDFT excited states in gaussian

0 1
Mg 13.14333 1.17747 1.00586
C 10.48742 0.98117 3.41141
C 14.95467 2.84855 3.36407
C 15.32244 1.76188 -1.22514
C 10.76810 0.53612 -1.46247
N 12.67335 1.77652 3.08252
C 11.65590 1.59350 3.91056
C 11.93422 2.02248 5.37619
C 13.10342 3.08737 5.09716
C 13.64027 2.52236 3.78368
C 12.58773 4.49300 4.83712
C 12.44198 0.83077 6.26163
C 12.43847 1.10159 7.76775
H 12.12019 0.00020 8.67225
N 15.04586 1.71517 1.17853
C 15.61665 2.36657 2.21350
C 17.03027 2.54389 1.84689
C 17.21069 2.09045 0.44100
C 15.83240 1.85248 0.06183
C 18.06915 3.02249 2.81905
C 18.42205 1.91400 -0.42369
O 18.32578 1.73648 -1.68941
C 19.72680 2.04834 0.24044
N 13.02957 1.36398 -1.06166
C 14.13532 1.56629 -1.79942
C 13.84815 1.39223 -3.27171
C 12.36840 0.79111 -3.35267
C 12.00677 0.80584 -1.85121
C 13.92873 2.66135 -4.11978
C 12.18932 -0.53396 -4.14312
C 12.88225 -1.66512 -3.41807
N 11.05154 0.63838 0.96277
C 10.24431 0.44332 -0.17934
C 8.86641 0.20476 0.29699
C 8.96406 0.30117 1.69329
C 10.30404 0.60012 2.06015
C 7.72672 -0.01121 -0.52799
C 8.23618 0.22854 2.93973
O 7.08837 -0.07882 3.25877
C 9.16488 0.79064 4.10075
C 9.10732 -0.17682 5.25107
O 9.56450 -1.32730 5.13282
O 8.72290 0.48017 6.36056
C 8.66156 -0.43505 7.53121
H 15.52020 3.57550 3.94768
H 16.05623 1.84617 -2.03008
H 9.98923 0.23120 -2.16466
H 11.10207 2.50584 5.87385
H 13.86683 3.04729 5.86979
H 11.51055 4.52019 4.76587
H 13.03667 4.80283 3.90251
H 12.96887 5.18098 5.59722
H 13.51886 0.69617 6.09745
H 11.88551 -0.06241 6.05379
H 11.85197 1.99195 8.02509
H 13.45593 1.35209 8.07766
H 17.61116 3.43527 3.72639
H 18.57135 3.87817 2.35487
H 18.81412 2.25798 3.04972
H 19.80027 3.03280 0.69641
H 20.46909 1.80092 -0.52091
H 19.78087 1.31883 1.05623
H 14.53849 0.68812 -3.71977
H 11.67380 1.48395 -3.85001
H 14.64557 2.58094 -4.95868
H 14.19143 3.48795 -3.47304
H 12.98336 2.99283 -4.54591
H 12.66451 -0.45689 -5.12415
H 11.15097 -0.80138 -4.30836
H 13.92181 -1.56769 -3.74503
H 12.46323 -2.62432 -3.71536
H 12.86180 -1.50833 -2.33333
H 7.16907 -0.82400 -0.08202
H 8.01473 -0.24038 -1.55186
H 7.23973 0.96428 -0.44712
H 8.78614 1.77595 4.37516
H 7.65213 -0.35548 7.94642
H 9.50102 -0.13750 8.18735
H 8.72795 -1.49956 7.33918

