%nproc=24
%mem=175gb
#p cam-b3lyp/Def2SVP td=(nstates=5)

TDDFT excited states in gaussian

0 1
Mg 31.54045 2.83175 2.39592
C 31.69334 1.69791 -1.00556
C 30.88021 -0.39452 3.28467
C 30.95485 3.86655 5.33764
C 31.07545 6.05490 1.15464
N 31.33879 0.98008 1.20307
C 31.47862 0.66027 -0.07463
C 31.46298 -0.86523 -0.36127
C 30.64280 -1.34478 0.93342
C 30.99914 -0.20431 1.88475
C 29.13722 -1.34195 0.72717
C 32.90505 -1.48301 -0.38902
C 32.98751 -2.89799 -0.96591
H 34.16861 -3.26547 -1.74207
N 31.48233 1.84481 4.11672
C 31.22171 0.53255 4.29375
C 31.27768 0.30358 5.74586
C 31.42974 1.62014 6.42281
C 31.27049 2.51632 5.29515
C 31.26868 -1.06875 6.35417
C 31.66511 2.00874 7.85102
O 31.52671 3.21849 8.25126
C 31.97118 0.91607 8.78583
N 30.87137 4.65294 3.14288
C 30.75282 4.85557 4.46682
C 30.52296 6.31553 4.77677
C 30.75391 7.08933 3.39638
C 31.00066 5.88073 2.46698
C 29.14368 6.66834 5.33309
C 31.79460 8.24241 3.40152
C 33.18317 7.68347 3.61325
N 31.58805 3.77134 0.45094
C 31.33973 5.12922 0.15331
C 31.37448 5.26601 -1.31724
C 31.61971 3.96360 -1.77773
C 31.70994 3.07412 -0.67311
C 31.14545 6.46668 -2.04666
C 31.81220 3.13713 -2.94761
O 31.92673 3.35189 -4.15363
C 31.74265 1.61189 -2.50583
C 32.90879 0.89431 -3.12851
O 34.07389 1.17342 -2.79497
O 32.45213 -0.14617 -3.84908
C 33.57245 -0.89573 -4.47747
H 30.44471 -1.32635 3.64650
H 30.85236 4.29558 6.33709
H 31.03705 7.04433 0.69395
H 30.93563 -1.15263 -1.26298
H 31.02138 -2.29029 1.31296
H 28.86120 -0.90373 -0.22042
H 28.72934 -0.76254 1.54508
H 28.73853 -2.35349 0.84618
H 33.22978 -1.68069 0.64065
H 33.58530 -0.83933 -0.91207
H 32.07274 -3.17847 -1.50208
H 33.04078 -3.60808 -0.13709
H 30.98224 -1.83217 5.62032
H 30.46038 -1.08561 7.09324
H 32.20867 -1.31463 6.85281
H 31.15537 0.19712 8.78054
H 32.19537 1.40045 9.73820
H 32.86002 0.38614 8.42562
H 31.24033 6.67391 5.50482
H 29.83266 7.57499 3.04244
H 29.18623 7.18174 6.31222
H 28.56201 5.75897 5.40551
H 28.52717 7.28569 4.68193
H 31.60298 8.92180 4.23571
H 31.78555 8.83647 2.49376
H 33.24267 7.57566 4.70041
H 33.93577 8.37701 3.24361
H 33.27499 6.68194 3.17717
H 31.89687 6.50687 -2.82400
H 31.19426 7.34024 -1.39992
H 30.13160 6.28256 -2.41200
H 30.78673 1.21460 -2.84929
H 33.37136 -0.92877 -5.55272
H 33.62061 -1.86367 -3.94406
H 34.55430 -0.43737 -4.45992

