%nproc=24
%mem=175gb
#p cam-b3lyp/Def2SVP td=(nstates=5)

TDDFT excited states in gaussian

0 1
Mg 0.00000 0.00000 0.00000
C -0.21700 -2.21800 2.80100
C -1.25500 2.44200 2.02600
C -0.24500 1.85000 -2.56400
C 0.14600 -2.82400 -2.03700
N -0.61700 -0.00900 2.12600
C -0.59400 -0.90800 3.10500
C -0.93600 -0.30900 4.50200
C -1.77300 0.96400 4.03200
C -1.15500 1.16800 2.66000
C -3.26300 0.68500 3.86300
C 0.34500 0.11000 5.29900
C 0.12400 0.39700 6.78700
H 1.16800 0.03300 7.73300
N -0.18500 1.96100 -0.15200
C -0.70300 2.80000 0.77700
C -0.62000 4.15600 0.19300
C -0.18700 4.01500 -1.22500
C -0.21400 2.58300 -1.38000
C -0.88700 5.40600 0.97400
C 0.18100 5.01300 -2.27700
O 0.30300 4.69000 -3.50800
C 0.31000 6.41400 -1.83700
N -0.26500 -0.41300 -2.02900
C -0.27900 0.56900 -2.93700
C -0.19600 0.02400 -4.33200
C 0.12400 -1.53300 -4.18000
C 0.08600 -1.63200 -2.63500
C -1.45100 0.20500 -5.19700
C 1.37300 -2.07000 -4.92300
C 2.62600 -1.49000 -4.30600
N 0.15000 -2.14400 0.30300
C 0.17300 -3.13600 -0.68800
C 0.17300 -4.43800 0.00400
C 0.13300 -4.11100 1.35800
C 0.08300 -2.69500 1.50200
C 0.14900 -5.71500 -0.62300
C 0.09600 -4.62900 2.71600
O 0.20800 -5.74700 3.22100
C -0.25500 -3.42800 3.70100
C 0.71700 -3.48200 4.84800
O 1.93100 -3.25500 4.66900
O 0.03800 -3.55600 6.00300
C 0.94300 -3.58300 7.18300
H -1.85900 3.22000 2.49700
H -0.21800 2.45300 -3.47400
H 0.27600 -3.74700 -2.60500
H -1.55400 -0.94900 5.13200
H -1.58500 1.83100 4.66500
H -3.48400 -0.37700 3.96900
H -3.51100 1.02700 2.85800
H -3.85200 1.30100 4.54300
H 0.66900 1.09600 4.96600
H 1.13000 -0.63900 5.18900
H -0.84400 0.02600 7.12500
H 0.06200 1.47700 6.92100
H -1.34400 5.18600 1.93800
H -1.65100 5.96300 0.43200
H 0.00700 6.02000 1.08400
H -0.63500 6.74400 -1.40500
H 0.66500 6.97000 -2.70400
H 1.04800 6.46600 -1.03600
H 0.60800 0.50100 -4.89100
H -0.69200 -2.15600 -4.54700
H -1.26700 0.74000 -6.12900
H -2.20400 0.71400 -4.59600
H -1.96700 -0.72000 -5.45300
H 1.35600 -1.75900 -5.96700
H 1.45200 -3.15700 -4.90200
H 2.71400 -0.52200 -4.79800
H 3.48700 -2.12100 -4.52900
H 2.49500 -1.30300 -3.24000
H 0.86700 -6.33300 -0.08400
H 0.40400 -5.64200 -1.68000
H -0.89100 -5.99900 -0.46300
H -1.28300 -3.58100 4.02800
H 0.69800 -4.47800 7.75500
H 0.83300 -2.61900 7.68000
H 2.00000 -3.75400 6.97600
Mg 15.77427 1.41249 1.19680
C 15.87933 0.94031 -2.35919
C 15.17132 -1.93336 1.47308
C 15.22946 1.86689 4.28939
C 15.24586 4.80362 0.59125
N 15.57433 -0.18514 -0.31973
C 15.69482 -0.25700 -1.63680
C 15.69328 -1.70156 -2.20495
C 14.90305 -2.42872 -1.01094
C 15.26223 -1.48173 0.13224
C 13.39403 -2.41111 -1.18952
C 17.14232 -2.28015 -2.37084
C 17.23214 -3.56010 -3.20476
H 18.40343 -3.75645 -4.05448
N 15.76012 0.11910 2.70196
C 15.51943 -1.20702 2.63307
C 15.60483 -1.70375 4.01515
C 15.75253 -0.53552 4.92518
C 15.56136 0.55386 3.98881
C 15.62434 -3.16588 4.35457
C 16.00902 -0.41841 6.39715
O 15.86263 0.69227 7.01988
C 16.34595 -1.66222 7.10490
N 15.09592 3.05010 2.28327
C 14.99903 2.99855 3.62337
C 14.75639 4.37046 4.20591
C 14.95225 5.39334 2.99226
C 15.19728 4.38489 1.84842
C 13.38315 4.59055 4.84007
C 15.97817 6.54131 3.19797
C 17.37735 5.97467 3.27916
N 15.77440 2.70132 -0.53726
C 15.50350 4.08682 -0.57030
C 15.50963 4.49792 -1.98923
C 15.76290 3.30924 -2.69023
C 15.88456 2.22966 -1.77414
C 15.25211 5.81043 -2.47618
C 15.94443 2.72039 -3.99751
O 16.03417 3.15965 -5.14326
C 15.90230 1.13840 -3.84944
C 17.06586 0.56917 -4.61405
O 18.23323 0.79913 -4.25215
O 16.60934 -0.32457 -5.51025
C 17.72739 -0.92487 -6.28576
H 14.75435 -2.92337 1.65994
H 15.13983 2.09888 5.35317
H 15.18650 5.86123 0.32552
H 15.15322 -1.82281 -3.13630
H 15.30045 -3.42256 -0.82195
H 13.09521 -1.80715 -2.03337
H 12.99386 -2.00220 -0.27099
H 13.01044 -3.43321 -1.25669
H 17.48829 -2.66253 -1.40191
H 17.80468 -1.53896 -2.77402
H 16.31136 -3.74937 -3.76982
H 17.30955 -4.41229 -2.52522
H 15.33423 -3.78233 3.49478
H 14.82995 -3.33410 5.08977
H 16.57632 -3.48608 4.78338
H 15.53935 -2.38025 6.97718
H 16.58135 -1.36185 8.12776
H 17.23470 -2.10088 6.63766
H 15.48234 4.59707 4.97711
H 14.01860 5.92214 2.75036
H 13.43707 4.91151 5.89749
H 12.81447 3.67464 4.74921
H 12.74707 5.30934 4.32631
H 15.79323 7.04879 4.14793
H 15.94500 7.29507 2.41840
H 17.45806 5.66554 4.32559
H 18.11421 6.73717 3.03489
H 17.47387 5.07446 2.66112
H 15.98863 6.00784 -3.24369
H 15.30166 6.54763 -1.67752
H 14.23417 5.68213 -2.85380
H 14.94538 0.79757 -4.24657
H 17.50712 -0.75854 -7.34477
H 17.79756 -1.97488 -5.94473
H 18.70352 -0.46243 -6.19761

