%nproc=24
%mem=175gb
#p cam-b3lyp/Def2SVP td=(nstates=5)

TDDFT excited states in gaussian

0 1
Mg 15.77285 1.42772 1.19743
C 15.19133 2.84184 4.44414
C 14.72255 4.39425 -0.11830
C 15.84399 0.06804 -1.66851
C 15.67241 -1.71468 2.70108
N 15.07340 3.30084 2.14317
C 14.95315 3.74330 3.38580
C 14.63328 5.25787 3.50113
C 13.95855 5.47159 2.05963
C 14.64937 4.34318 1.29667
C 12.46197 5.20795 2.05061
C 15.92656 6.13111 3.66516
C 15.67504 7.57901 4.09188
H 16.63877 8.21954 4.98262
N 15.82042 2.24444 -0.61068
C 15.37179 3.46744 -0.96320
C 15.61674 3.58450 -2.40904
C 16.09545 2.26815 -2.91179
C 15.91474 1.45224 -1.72784
C 15.47078 4.87783 -3.15698
C 16.61613 1.81530 -4.24221
O 16.75042 0.57241 -4.52512
C 16.87577 2.86635 -5.23687
N 15.54970 -0.53999 0.56443
C 15.67803 -0.86749 -0.73334
C 15.75164 -2.36502 -0.91330
C 15.88973 -2.96866 0.56119
C 15.77741 -1.66409 1.38026
C 14.55792 -3.00992 -1.61722
C 17.09886 -3.90668 0.82726
C 18.38794 -3.12032 0.75440
N 15.67157 0.67357 3.21957
C 15.61388 -0.67819 3.62393
C 15.43857 -0.68674 5.09077
C 15.38291 0.67149 5.43805
C 15.49399 1.46997 4.26775
C 15.30468 -1.84600 5.90582
C 15.24478 1.61121 6.52734
O 15.20214 1.51958 7.75352
C 14.98762 3.05664 5.91825
C 15.90152 4.02491 6.61807
O 17.13496 3.93932 6.48423
O 15.16658 5.01822 7.15058
C 16.02957 6.00984 7.84611
H 14.19768 5.19742 -0.63630
H 15.97517 -0.45201 -2.62026
H 15.73049 -2.65363 3.25576
H 13.92900 5.51515 4.28316
H 14.22600 6.43682 1.63752
H 12.11827 4.80452 2.99149
H 12.29298 4.49901 1.25067
H 11.92100 6.11564 1.76816
H 16.37151 6.30126 2.67631
H 16.61502 5.66836 4.34524
H 14.65285 7.72850 4.46029
H 15.73709 8.21729 3.20714
H 14.94642 5.63221 -2.55752
H 14.79847 4.68551 -4.00011
H 16.42208 5.25161 -3.54167
H 15.95917 3.42060 -5.42424
H 17.32668 2.35614 -6.09024
H 17.59333 3.57845 -4.81420
H 16.62539 -2.64274 -1.48997
H 15.02029 -3.58557 0.83199
H 14.84130 -3.58421 -2.51942
H 13.84897 -2.23227 -1.86860
H 13.96032 -3.67557 -0.99675
H 17.15979 -4.67500 0.05258
H 17.04763 -4.41676 1.78339
H 18.59926 -3.09175 -0.31873
H 19.17949 -3.63100 1.29910
H 18.23807 -2.08708 1.08848
H 15.91958 -1.68391 6.78110
H 15.60287 -2.74502 5.37046
H 14.22948 -1.82299 6.10253
H 13.93599 3.29735 6.07860
H 15.65846 6.09216 8.87236
H 15.99613 6.92365 7.22356
H 17.06531 5.74045 8.01673

