%nproc=24
%mem=175gb
#p cam-b3lyp/Def2SVP td=(nstates=5)

TDDFT excited states in gaussian

0 1
Mg 0.00000 0.00000 0.00000
C -0.21700 -2.21800 2.80100
C -1.25500 2.44200 2.02600
C -0.24500 1.85000 -2.56400
C 0.14600 -2.82400 -2.03700
N -0.61700 -0.00900 2.12600
C -0.59400 -0.90800 3.10500
C -0.93600 -0.30900 4.50200
C -1.77300 0.96400 4.03200
C -1.15500 1.16800 2.66000
C -3.26300 0.68500 3.86300
C 0.34500 0.11000 5.29900
C 0.12400 0.39700 6.78700
H 1.16800 0.03300 7.73300
N -0.18500 1.96100 -0.15200
C -0.70300 2.80000 0.77700
C -0.62000 4.15600 0.19300
C -0.18700 4.01500 -1.22500
C -0.21400 2.58300 -1.38000
C -0.88700 5.40600 0.97400
C 0.18100 5.01300 -2.27700
O 0.30300 4.69000 -3.50800
C 0.31000 6.41400 -1.83700
N -0.26500 -0.41300 -2.02900
C -0.27900 0.56900 -2.93700
C -0.19600 0.02400 -4.33200
C 0.12400 -1.53300 -4.18000
C 0.08600 -1.63200 -2.63500
C -1.45100 0.20500 -5.19700
C 1.37300 -2.07000 -4.92300
C 2.62600 -1.49000 -4.30600
N 0.15000 -2.14400 0.30300
C 0.17300 -3.13600 -0.68800
C 0.17300 -4.43800 0.00400
C 0.13300 -4.11100 1.35800
C 0.08300 -2.69500 1.50200
C 0.14900 -5.71500 -0.62300
C 0.09600 -4.62900 2.71600
O 0.20800 -5.74700 3.22100
C -0.25500 -3.42800 3.70100
C 0.71700 -3.48200 4.84800
O 1.93100 -3.25500 4.66900
O 0.03800 -3.55600 6.00300
C 0.94300 -3.58300 7.18300
H -1.85900 3.22000 2.49700
H -0.21800 2.45300 -3.47400
H 0.27600 -3.74700 -2.60500
H -1.55400 -0.94900 5.13200
H -1.58500 1.83100 4.66500
H -3.48400 -0.37700 3.96900
H -3.51100 1.02700 2.85800
H -3.85200 1.30100 4.54300
H 0.66900 1.09600 4.96600
H 1.13000 -0.63900 5.18900
H -0.84400 0.02600 7.12500
H 0.06200 1.47700 6.92100
H -1.34400 5.18600 1.93800
H -1.65100 5.96300 0.43200
H 0.00700 6.02000 1.08400
H -0.63500 6.74400 -1.40500
H 0.66500 6.97000 -2.70400
H 1.04800 6.46600 -1.03600
H 0.60800 0.50100 -4.89100
H -0.69200 -2.15600 -4.54700
H -1.26700 0.74000 -6.12900
H -2.20400 0.71400 -4.59600
H -1.96700 -0.72000 -5.45300
H 1.35600 -1.75900 -5.96700
H 1.45200 -3.15700 -4.90200
H 2.71400 -0.52200 -4.79800
H 3.48700 -2.12100 -4.52900
H 2.49500 -1.30300 -3.24000
H 0.86700 -6.33300 -0.08400
H 0.40400 -5.64200 -1.68000
H -0.89100 -5.99900 -0.46300
H -1.28300 -3.58100 4.02800
H 0.69800 -4.47800 7.75500
H 0.83300 -2.61900 7.68000
H 2.00000 -3.75400 6.97600
Mg 31.52800 2.84102 2.38602
C 32.84996 0.20603 0.33948
C 33.00998 5.04453 0.24525
C 30.76371 5.16494 4.40658
C 31.14491 0.48683 4.92703
N 32.74523 2.54224 0.56356
C 33.13073 1.49741 -0.15342
C 33.78758 1.85739 -1.51302
C 34.28608 3.34109 -1.15389
C 33.26575 3.68638 -0.07113
C 35.67241 3.37626 -0.53244
C 32.75270 1.86885 -2.69239
C 33.37214 1.90766 -4.09115
H 32.70535 1.18096 -5.16808
N 31.41021 4.80179 2.10301
C 32.06262 5.53036 1.17305
C 31.65113 6.92544 1.39349
C 30.83056 6.98207 2.63373
C 30.99052 5.62554 3.11780
C 31.97178 8.03042 0.42933
C 30.04389 8.07952 3.28406
O 29.60255 7.97245 4.48264
C 29.88549 9.31968 2.51049
N 31.22445 2.87829 4.44242
C 30.84870 4.00906 5.06540
C 30.42444 3.73289 6.48811
C 30.36334 2.14000 6.61670
C 30.87135 1.75292 5.21047
C 31.33832 4.29636 7.57610
C 29.02692 1.52491 7.11503
C 27.94420 1.73669 6.08147
N 31.74106 0.69857 2.56644
C 31.55663 -0.08209 3.72861
C 31.92755 -1.46998 3.38420
C 32.32716 -1.39564 2.04134
C 32.23252 -0.05241 1.58717
C 31.91587 -2.57975 4.27548
C 32.81763 -2.14619 0.90784
O 33.00884 -3.33858 0.67254
C 33.29827 -1.12080 -0.20748
C 32.72494 -1.56528 -1.52515
O 31.49639 -1.54915 -1.71753
O 33.72630 -1.72783 -2.40902
C 33.20666 -2.15776 -3.73452
H 33.62104 5.81205 -0.23058
H 30.39102 5.90894 5.11443
H 30.95999 -0.32317 5.63582
H 34.63264 1.23747 -1.78752
H 34.18076 4.00982 -2.00423
H 36.04646 2.38458 -0.32555
H 35.56927 3.94075 0.38504
H 36.35462 3.95135 -1.16505
H 32.22309 2.83023 -2.69470
H 32.08074 1.03607 -2.61775
H 34.44322 1.67217 -4.07431
H 33.32936 2.93491 -4.46124
H 32.72669 7.71878 -0.30305
H 32.46197 8.82386 1.00382
H 31.08158 8.44099 -0.05198
H 30.86619 9.72597 2.27469
H 29.21981 9.95053 3.10275
H 29.40719 9.07729 1.55493
H 29.43973 4.13928 6.68383
H 31.10539 1.76039 7.33440
H 30.81361 4.96648 8.28298
H 32.15856 4.81515 7.09798
H 31.85566 3.55021 8.17678
H 28.69222 2.03174 8.02346
H 29.09726 0.46677 7.34391
H 27.59749 2.75285 6.29194
H 27.14338 1.01155 6.21149
H 28.36173 1.73416 5.06791
H 31.47896 -3.40875 3.73476
H 31.35659 -2.35613 5.18155
H 32.98660 -2.68532 4.46955
H 34.38891 -1.12904 -0.21191
H 33.72549 -3.08533 -3.99552
H 33.35286 -1.29224 -4.40776
H 32.17100 -2.47223 -3.78884

