%nproc=24
%mem=175gb
#p cam-b3lyp/Def2SVP td=(nstates=5)

TDDFT excited states in gaussian

0 1
Mg 8.93270 0.81299 0.68459
C 10.96539 0.05110 3.54234
C 6.27013 0.98052 2.80997
C 7.04560 1.03946 -1.85609
C 11.46885 -0.51849 -1.30056
N 8.76597 0.53351 2.87236
C 9.61600 0.30785 3.86275
C 9.00015 0.43966 5.28152
C 7.46468 0.15892 4.90420
C 7.48329 0.61704 3.44733
C 7.09680 -1.31517 4.93669
C 9.19015 1.87573 5.88454
C 8.89016 1.98978 7.38079
H 9.69593 2.90485 8.18444
N 7.06297 1.45945 0.52711
C 6.12352 1.47636 1.49583
C 4.91067 2.02604 0.87051
C 5.16287 2.17844 -0.58822
C 6.45463 1.53142 -0.70141
C 3.69753 2.42474 1.65965
C 4.36667 2.79214 -1.69981
O 4.67032 2.60155 -2.93038
C 3.16663 3.54576 -1.30809
N 9.11843 0.14111 -1.27409
C 8.17688 0.41962 -2.19271
C 8.65342 0.07583 -3.58380
C 10.20804 -0.26757 -3.43275
C 10.34667 -0.14406 -1.89948
C 7.93808 -1.09219 -4.26233
C 11.19493 0.52779 -4.33060
C 11.21545 1.98079 -3.91377
N 10.94407 0.09280 1.00671
C 11.82227 -0.44552 0.04076
C 13.03083 -0.90187 0.75739
C 12.76016 -0.61610 2.10408
C 11.46547 -0.04200 2.22098
C 14.15980 -1.53497 0.16516
C 13.27099 -0.67932 3.45454
O 14.34800 -0.98910 3.96229
C 12.08062 -0.36638 4.46027
C 12.57377 0.63801 5.46551
O 12.87862 1.79023 5.11046
O 12.39832 0.14387 6.70463
C 12.86242 1.10857 7.73701
H 5.33524 0.83338 3.35146
H 6.48031 1.19455 -2.77797
H 12.34466 -0.85496 -1.85950
H 9.34747 -0.29546 5.99758
H 6.79368 0.78090 5.49094
H 7.96142 -1.94283 5.09361
H 6.64490 -1.52681 3.97646
H 6.31674 -1.49267 5.68257
H 8.41067 2.53758 5.48565
H 10.17708 2.24538 5.68466
H 8.82677 1.00748 7.86452
H 7.89047 2.41371 7.50295
H 3.74235 2.04242 2.68689
H 2.84162 1.90639 1.21401
H 3.51232 3.50067 1.63257
H 2.49449 2.89307 -0.75611
H 2.78165 3.98279 -2.23149
H 3.46447 4.34504 -0.62029
H 8.54368 0.92240 -4.25041
H 10.41971 -1.31731 -3.68388
H 7.48489 -0.82105 -5.23453
H 7.18507 -1.47154 -3.58438
H 8.55473 -1.97194 -4.43836
H 10.86061 0.50799 -5.37079
H 12.20725 0.13820 -4.31023
H 10.34814 2.39887 -4.43346
H 12.13774 2.45912 -4.23721
H 11.03600 2.08399 -2.83730
H 15.03768 -1.08562 0.61003
H 14.15816 -1.41973 -0.91673
H 13.98375 -2.57064 0.46792
H 11.79230 -1.30771 4.92967
H 13.59454 0.58378 8.35852
H 11.94621 1.47394 8.23782
H 13.44168 1.96103 7.40203

