%nproc=24
%mem=175gb
#p cam-b3lyp/Def2SVP td=(nstates=5)

TDDFT excited states in gaussian

0 1
Mg 0.00000 0.00000 0.00000
C -0.21700 -2.21800 2.80100
C -1.25500 2.44200 2.02600
C -0.24500 1.85000 -2.56400
C 0.14600 -2.82400 -2.03700
N -0.61700 -0.00900 2.12600
C -0.59400 -0.90800 3.10500
C -0.93600 -0.30900 4.50200
C -1.77300 0.96400 4.03200
C -1.15500 1.16800 2.66000
C -3.26300 0.68500 3.86300
C 0.34500 0.11000 5.29900
C 0.12400 0.39700 6.78700
H 1.16800 0.03300 7.73300
N -0.18500 1.96100 -0.15200
C -0.70300 2.80000 0.77700
C -0.62000 4.15600 0.19300
C -0.18700 4.01500 -1.22500
C -0.21400 2.58300 -1.38000
C -0.88700 5.40600 0.97400
C 0.18100 5.01300 -2.27700
O 0.30300 4.69000 -3.50800
C 0.31000 6.41400 -1.83700
N -0.26500 -0.41300 -2.02900
C -0.27900 0.56900 -2.93700
C -0.19600 0.02400 -4.33200
C 0.12400 -1.53300 -4.18000
C 0.08600 -1.63200 -2.63500
C -1.45100 0.20500 -5.19700
C 1.37300 -2.07000 -4.92300
C 2.62600 -1.49000 -4.30600
N 0.15000 -2.14400 0.30300
C 0.17300 -3.13600 -0.68800
C 0.17300 -4.43800 0.00400
C 0.13300 -4.11100 1.35800
C 0.08300 -2.69500 1.50200
C 0.14900 -5.71500 -0.62300
C 0.09600 -4.62900 2.71600
O 0.20800 -5.74700 3.22100
C -0.25500 -3.42800 3.70100
C 0.71700 -3.48200 4.84800
O 1.93100 -3.25500 4.66900
O 0.03800 -3.55600 6.00300
C 0.94300 -3.58300 7.18300
H -1.85900 3.22000 2.49700
H -0.21800 2.45300 -3.47400
H 0.27600 -3.74700 -2.60500
H -1.55400 -0.94900 5.13200
H -1.58500 1.83100 4.66500
H -3.48400 -0.37700 3.96900
H -3.51100 1.02700 2.85800
H -3.85200 1.30100 4.54300
H 0.66900 1.09600 4.96600
H 1.13000 -0.63900 5.18900
H -0.84400 0.02600 7.12500
H 0.06200 1.47700 6.92100
H -1.34400 5.18600 1.93800
H -1.65100 5.96300 0.43200
H 0.00700 6.02000 1.08400
H -0.63500 6.74400 -1.40500
H 0.66500 6.97000 -2.70400
H 1.04800 6.46600 -1.03600
H 0.60800 0.50100 -4.89100
H -0.69200 -2.15600 -4.54700
H -1.26700 0.74000 -6.12900
H -2.20400 0.71400 -4.59600
H -1.96700 -0.72000 -5.45300
H 1.35600 -1.75900 -5.96700
H 1.45200 -3.15700 -4.90200
H 2.71400 -0.52200 -4.79800
H 3.48700 -2.12100 -4.52900
H 2.49500 -1.30300 -3.24000
H 0.86700 -6.33300 -0.08400
H 0.40400 -5.64200 -1.68000
H -0.89100 -5.99900 -0.46300
H -1.28300 -3.58100 4.02800
H 0.69800 -4.47800 7.75500
H 0.83300 -2.61900 7.68000
H 2.00000 -3.75400 6.97600
Mg 10.51743 0.94958 0.79082
C 13.28300 -1.28866 1.26082
C 12.68193 3.51386 1.40238
C 8.02503 2.91273 0.82887
C 8.40483 -1.76569 1.34756
N 12.67913 0.98166 1.25802
C 13.63874 0.07332 1.34971
C 15.07090 0.66033 1.46757
C 14.69199 2.09951 2.07095
C 13.27453 2.23103 1.51762
C 14.61560 2.11464 3.58860
C 15.78013 0.79038 0.07397
C 17.28428 1.06385 0.14092
H 18.14594 0.46846 -0.87668
N 10.43306 2.92206 0.58886
C 11.41168 3.81053 0.86129
C 10.84539 5.13584 0.56628
C 9.39971 4.96946 0.25478
C 9.22127 3.56690 0.57269
C 11.67767 6.38425 0.51942
C 8.34843 5.91901 -0.23448
O 7.10322 5.61631 -0.20897
C 8.81161 7.24878 -0.65714
N 8.51077 0.67174 1.25823
C 7.62790 1.67917 1.14180
C 6.20877 1.17766 1.26401
C 6.31388 -0.41801 1.24514
C 7.85029 -0.56994 1.20325
C 5.45130 1.62278 2.51481
C 5.46777 -1.16649 0.17905
C 5.99475 -0.86217 -1.20481
N 10.75854 -1.18262 1.04307
C 9.74336 -2.13244 1.29077
C 10.40791 -3.43468 1.50284
C 11.77579 -3.14546 1.38568
C 11.95236 -1.75705 1.13943
C 9.75496 -4.66144 1.81079
C 13.11103 -3.69709 1.42488
O 13.58022 -4.83123 1.51049
C 14.15237 -2.49716 1.47144
C 15.22571 -2.77391 0.45465
O 14.95655 -2.79272 -0.75936
O 16.42524 -2.75480 1.06384
C 17.52293 -3.01329 0.09427
H 13.22194 4.37263 1.80213
H 7.12481 3.52582 0.74409
H 7.81098 -2.67855 1.42933
H 15.72402 0.13091 2.15088
H 15.33299 2.87856 1.66653
H 14.71319 1.12382 4.00681
H 13.64757 2.53364 3.83025
H 15.35515 2.80972 3.99635
H 15.44288 1.71356 -0.41465
H 15.59715 -0.07761 -0.52913
H 17.69183 0.88343 1.14307
H 17.45093 2.13047 -0.02814
H 12.67186 6.22143 0.95355
H 11.20405 7.10965 1.18975
H 11.73564 6.81447 -0.48269
H 9.32001 7.73460 0.17230
H 7.92933 7.75193 -1.05750
H 9.55509 7.12388 -1.45228
H 5.61058 1.50043 0.42074
H 5.98023 -0.85959 2.19568
H 4.50845 2.15526 2.28772
H 6.10728 2.24681 3.10710
H 5.20062 0.82458 3.21140
H 4.43332 -0.81497 0.20147
H 5.44570 -2.24168 0.32211
H 5.51942 0.09352 -1.44524
H 5.69773 -1.63845 -1.90710
H 7.07810 -0.69590 -1.18563
H 10.22224 -5.42417 1.20219
H 8.68523 -4.60087 1.62166
H 9.97937 -4.73930 2.87796
H 14.55154 -2.44897 2.48530
H 18.09324 -3.86531 0.47703
H 18.06156 -2.05272 -0.01028
H 17.24739 -3.36899 -0.89164

