%nproc=24
%mem=175gb
#p cam-b3lyp/Def2SVP td=(nstates=5)

TDDFT excited states in gaussian

0 1
Mg 0.00000 0.00000 0.00000
C -0.21700 -2.21800 2.80100
C -1.25500 2.44200 2.02600
C -0.24500 1.85000 -2.56400
C 0.14600 -2.82400 -2.03700
N -0.61700 -0.00900 2.12600
C -0.59400 -0.90800 3.10500
C -0.93600 -0.30900 4.50200
C -1.77300 0.96400 4.03200
C -1.15500 1.16800 2.66000
C -3.26300 0.68500 3.86300
C 0.34500 0.11000 5.29900
C 0.12400 0.39700 6.78700
H 1.16800 0.03300 7.73300
N -0.18500 1.96100 -0.15200
C -0.70300 2.80000 0.77700
C -0.62000 4.15600 0.19300
C -0.18700 4.01500 -1.22500
C -0.21400 2.58300 -1.38000
C -0.88700 5.40600 0.97400
C 0.18100 5.01300 -2.27700
O 0.30300 4.69000 -3.50800
C 0.31000 6.41400 -1.83700
N -0.26500 -0.41300 -2.02900
C -0.27900 0.56900 -2.93700
C -0.19600 0.02400 -4.33200
C 0.12400 -1.53300 -4.18000
C 0.08600 -1.63200 -2.63500
C -1.45100 0.20500 -5.19700
C 1.37300 -2.07000 -4.92300
C 2.62600 -1.49000 -4.30600
N 0.15000 -2.14400 0.30300
C 0.17300 -3.13600 -0.68800
C 0.17300 -4.43800 0.00400
C 0.13300 -4.11100 1.35800
C 0.08300 -2.69500 1.50200
C 0.14900 -5.71500 -0.62300
C 0.09600 -4.62900 2.71600
O 0.20800 -5.74700 3.22100
C -0.25500 -3.42800 3.70100
C 0.71700 -3.48200 4.84800
O 1.93100 -3.25500 4.66900
O 0.03800 -3.55600 6.00300
C 0.94300 -3.58300 7.18300
H -1.85900 3.22000 2.49700
H -0.21800 2.45300 -3.47400
H 0.27600 -3.74700 -2.60500
H -1.55400 -0.94900 5.13200
H -1.58500 1.83100 4.66500
H -3.48400 -0.37700 3.96900
H -3.51100 1.02700 2.85800
H -3.85200 1.30100 4.54300
H 0.66900 1.09600 4.96600
H 1.13000 -0.63900 5.18900
H -0.84400 0.02600 7.12500
H 0.06200 1.47700 6.92100
H -1.34400 5.18600 1.93800
H -1.65100 5.96300 0.43200
H 0.00700 6.02000 1.08400
H -0.63500 6.74400 -1.40500
H 0.66500 6.97000 -2.70400
H 1.04800 6.46600 -1.03600
H 0.60800 0.50100 -4.89100
H -0.69200 -2.15600 -4.54700
H -1.26700 0.74000 -6.12900
H -2.20400 0.71400 -4.59600
H -1.96700 -0.72000 -5.45300
H 1.35600 -1.75900 -5.96700
H 1.45200 -3.15700 -4.90200
H 2.71400 -0.52200 -4.79800
H 3.48700 -2.12100 -4.52900
H 2.49500 -1.30300 -3.24000
H 0.86700 -6.33300 -0.08400
H 0.40400 -5.64200 -1.68000
H -0.89100 -5.99900 -0.46300
H -1.28300 -3.58100 4.02800
H 0.69800 -4.47800 7.75500
H 0.83300 -2.61900 7.68000
H 2.00000 -3.75400 6.97600
Mg 31.53291 2.84131 2.38504
C 33.83992 0.37825 1.16435
C 33.71797 5.21732 1.28291
C 29.74590 5.01955 3.84425
C 30.12625 0.34131 4.36418
N 33.49231 2.69256 1.36972
C 34.24036 1.70489 0.90147
C 35.44538 2.16455 0.03764
C 35.61463 3.64731 0.63063
C 34.17994 3.89020 1.09469
C 36.52635 3.70945 1.84482
C 35.10620 2.19374 -1.49407
C 36.31770 2.33345 -2.41846
H 36.29811 1.63670 -3.70167
N 31.44139 4.80739 2.13060
C 32.41265 5.61181 1.65015
C 31.85822 6.97411 1.68015
C 30.54092 6.92932 2.37112
C 30.53435 5.55723 2.83738
C 32.53184 8.14151 1.01922
C 29.47065 7.95567 2.58869
O 28.51546 7.76618 3.42208
C 29.62510 9.22708 1.86678
N 30.27686 2.75631 4.03956
C 29.57704 3.83512 4.43241
C 28.53982 3.46579 5.46593
C 28.52572 1.86717 5.50825
C 29.67038 1.57756 4.51263
C 28.78057 4.00980 6.87394
C 27.15638 1.16925 5.28354
C 26.69256 1.38849 3.86150
N 31.76859 0.70354 2.59102
C 31.09837 -0.14490 3.49933
C 31.67643 -1.49521 3.34141
C 32.66652 -1.33254 2.36073
C 32.71671 0.02753 1.95185
C 31.30838 -2.65015 4.08758
C 33.68786 -1.99999 1.58609
O 34.04389 -3.16884 1.44192
C 34.57912 -0.89706 0.86805
C 34.73905 -1.29544 -0.57356
O 33.75590 -1.32232 -1.33467
O 36.04997 -1.36739 -0.86800
C 36.25970 -1.74852 -2.29017
H 34.43237 6.03472 1.18102
H 29.03253 5.70813 4.30299
H 29.67533 -0.51237 4.87464
H 36.35580 1.59722 0.18946
H 35.88867 4.35500 -0.14747
H 36.81707 2.72531 2.18113
H 35.95942 4.21949 2.61260
H 37.39054 4.34626 1.63511
H 34.58303 3.13006 -1.72718
H 34.53545 1.32987 -1.77444
H 37.26140 2.14398 -1.89266
H 36.39290 3.37605 -2.73679
H 33.56387 7.90211 0.73459
H 32.63416 8.92384 1.77906
H 31.95843 8.53811 0.17863
H 30.57041 9.68737 2.14422
H 28.71819 9.79623 2.08000
H 29.68131 9.01523 0.79320
H 27.55867 3.81823 5.17226
H 28.85399 1.48252 6.48503
H 27.93939 4.61816 7.25655
H 29.69483 4.58823 6.86467
H 28.99180 3.25594 7.63043
H 26.39491 1.61223 5.93014
H 27.17510 0.10450 5.49078
H 26.22365 2.37610 3.90435
H 25.97567 0.62349 3.57015
H 27.54498 1.45778 3.17576
H 31.23869 -3.46744 3.38212
H 30.36959 -2.49931 4.61644
H 32.15836 -2.71942 4.77169
H 35.53573 -0.85784 1.39049
H 36.89781 -2.63762 -2.29190
H 36.65614 -0.84300 -2.78678
H 35.39990 -2.10420 -2.84577

