%nproc=24
%mem=175gb
#p cam-b3lyp/Def2SVP td=(nstates=5)

TDDFT excited states in gaussian

0 1
Mg 8.94139 0.80738 0.68587
C 8.09898 -1.34036 3.43480
C 8.27781 3.44827 2.74011
C 9.23860 2.71367 -1.83309
C 8.43024 -1.92078 -1.42164
N 8.28194 0.91255 2.79450
C 8.05335 0.03202 3.75718
C 7.83824 0.65628 5.16203
C 7.35214 2.11679 4.70430
C 8.03855 2.18696 3.34173
C 5.85089 2.21114 4.48827
C 9.16657 0.72761 5.99418
C 8.97823 1.03775 7.48082
H 9.87883 0.40830 8.44268
N 9.25868 2.76390 0.58629
C 8.94776 3.68724 1.52012
C 9.36573 4.98197 0.96052
C 9.79781 4.76700 -0.44725
C 9.42058 3.37976 -0.62986
C 9.40546 6.24436 1.77182
C 10.43232 5.66541 -1.46532
O 10.50355 5.33681 -2.70216
C 10.88379 6.98075 -0.98830
N 8.64387 0.51016 -1.35018
C 8.89554 1.49000 -2.23591
C 8.87548 0.96420 -3.65136
C 8.79666 -0.62747 -3.51733
C 8.69015 -0.74710 -1.98118
C 7.72525 1.45839 -4.52836
C 9.89240 -1.45044 -4.24860
C 11.23724 -1.20868 -3.60181
N 8.55102 -1.30242 0.93964
C 8.34470 -2.26009 -0.07741
C 8.00154 -3.53401 0.58725
C 8.00954 -3.22102 1.95490
C 8.31491 -1.84413 2.12929
C 7.68708 -4.75687 -0.06992
C 7.81865 -3.73985 3.29022
O 7.62828 -4.85706 3.76911
C 7.74380 -2.51621 4.30189
C 8.64190 -2.82278 5.46892
O 9.87246 -2.91233 5.31303
O 7.92807 -2.74445 6.60676
C 8.77802 -3.02974 7.79336
H 7.87857 4.33897 3.22607
H 9.43862 3.30113 -2.73218
H 8.35262 -2.84101 -2.00459
H 7.07018 0.17877 5.75854
H 7.73892 2.88727 5.36621
H 5.37152 1.24647 4.56410
H 5.72179 2.62074 3.49498
H 5.41651 2.94331 5.17498
H 9.73403 1.61565 5.68740
H 9.73502 -0.17519 5.88257
H 7.93474 0.92017 7.79744
H 9.19001 2.09728 7.64381
H 8.87435 6.12715 2.72449
H 8.82204 6.99374 1.22600
H 10.42034 6.62170 1.91433
H 10.03960 7.52134 -0.56692
H 11.38991 7.44202 -1.83857
H 11.59988 6.83023 -0.17273
H 9.78619 1.22810 -4.17488
H 7.85752 -1.02506 -3.92936
H 8.06620 1.95683 -5.45538
H 7.11105 2.12760 -3.94060
H 7.01139 0.69309 -4.82823
H 9.98361 -1.12139 -5.28666
H 9.69285 -2.51669 -4.26511
H 11.57227 -0.27802 -4.06948
H 11.91975 -2.02775 -3.81941
H 11.12878 -1.01750 -2.52787
H 8.20764 -5.54036 0.46455
H 7.97581 -4.73034 -1.11858
H 6.60126 -4.77266 0.05661
H 6.70203 -2.40511 4.60513
H 8.29855 -3.84719 8.34069
H 8.88595 -2.06433 8.32260
H 9.76378 -3.44358 7.61595

