%nproc=24
%mem=175gb
#p cam-b3lyp/Def2SVP td=(nstates=5)

TDDFT excited states in gaussian

0 1
Mg 0.00000 0.00000 0.00000
C -0.21700 -2.21800 2.80100
C -1.25500 2.44200 2.02600
C -0.24500 1.85000 -2.56400
C 0.14600 -2.82400 -2.03700
N -0.61700 -0.00900 2.12600
C -0.59400 -0.90800 3.10500
C -0.93600 -0.30900 4.50200
C -1.77300 0.96400 4.03200
C -1.15500 1.16800 2.66000
C -3.26300 0.68500 3.86300
C 0.34500 0.11000 5.29900
C 0.12400 0.39700 6.78700
H 1.16800 0.03300 7.73300
N -0.18500 1.96100 -0.15200
C -0.70300 2.80000 0.77700
C -0.62000 4.15600 0.19300
C -0.18700 4.01500 -1.22500
C -0.21400 2.58300 -1.38000
C -0.88700 5.40600 0.97400
C 0.18100 5.01300 -2.27700
O 0.30300 4.69000 -3.50800
C 0.31000 6.41400 -1.83700
N -0.26500 -0.41300 -2.02900
C -0.27900 0.56900 -2.93700
C -0.19600 0.02400 -4.33200
C 0.12400 -1.53300 -4.18000
C 0.08600 -1.63200 -2.63500
C -1.45100 0.20500 -5.19700
C 1.37300 -2.07000 -4.92300
C 2.62600 -1.49000 -4.30600
N 0.15000 -2.14400 0.30300
C 0.17300 -3.13600 -0.68800
C 0.17300 -4.43800 0.00400
C 0.13300 -4.11100 1.35800
C 0.08300 -2.69500 1.50200
C 0.14900 -5.71500 -0.62300
C 0.09600 -4.62900 2.71600
O 0.20800 -5.74700 3.22100
C -0.25500 -3.42800 3.70100
C 0.71700 -3.48200 4.84800
O 1.93100 -3.25500 4.66900
O 0.03800 -3.55600 6.00300
C 0.94300 -3.58300 7.18300
H -1.85900 3.22000 2.49700
H -0.21800 2.45300 -3.47400
H 0.27600 -3.74700 -2.60500
H -1.55400 -0.94900 5.13200
H -1.58500 1.83100 4.66500
H -3.48400 -0.37700 3.96900
H -3.51100 1.02700 2.85800
H -3.85200 1.30100 4.54300
H 0.66900 1.09600 4.96600
H 1.13000 -0.63900 5.18900
H -0.84400 0.02600 7.12500
H 0.06200 1.47700 6.92100
H -1.34400 5.18600 1.93800
H -1.65100 5.96300 0.43200
H 0.00700 6.02000 1.08400
H -0.63500 6.74400 -1.40500
H 0.66500 6.97000 -2.70400
H 1.04800 6.46600 -1.03600
H 0.60800 0.50100 -4.89100
H -0.69200 -2.15600 -4.54700
H -1.26700 0.74000 -6.12900
H -2.20400 0.71400 -4.59600
H -1.96700 -0.72000 -5.45300
H 1.35600 -1.75900 -5.96700
H 1.45200 -3.15700 -4.90200
H 2.71400 -0.52200 -4.79800
H 3.48700 -2.12100 -4.52900
H 2.49500 -1.30300 -3.24000
H 0.86700 -6.33300 -0.08400
H 0.40400 -5.64200 -1.68000
H -0.89100 -5.99900 -0.46300
H -1.28300 -3.58100 4.02800
H 0.69800 -4.47800 7.75500
H 0.83300 -2.61900 7.68000
H 2.00000 -3.75400 6.97600
Mg 15.77293 1.42756 1.19647
C 15.17121 3.24391 4.23256
C 14.76730 4.21421 -0.49406
C 15.86083 -0.28237 -1.47484
C 15.62414 -1.49974 3.08179
N 15.08266 3.41087 1.89091
C 14.95364 4.00715 3.06656
C 14.64813 5.52697 2.98682
C 13.99111 5.56364 1.52195
C 14.67845 4.34216 0.91514
C 12.49208 5.31419 1.52829
C 15.94847 6.40245 3.05521
C 15.70726 7.89468 3.29357
H 16.66791 8.63362 4.10817
N 15.84826 2.00993 -0.69925
C 15.41601 3.18280 -1.20799
C 15.67763 3.11490 -2.65406
C 16.14816 1.74159 -2.98165
C 15.94641 1.08271 -1.70679
C 15.55298 4.30513 -3.56029
C 16.67839 1.12041 -4.23831
O 16.80294 -0.14932 -4.36117
C 16.95946 2.03568 -5.35401
N 15.53639 -0.60208 0.81315
C 15.67526 -1.09134 -0.43155
C 15.73542 -2.60020 -0.42101
C 15.85150 -3.01478 1.11920
C 15.74380 -1.61661 1.76643
C 14.54275 -3.31794 -1.05248
C 17.04801 -3.92254 1.51543
C 18.34580 -3.16301 1.35970
N 15.64226 0.93467 3.29600
C 15.56636 -0.35493 3.86630
C 15.37527 -0.17737 5.32039
C 15.32984 1.21419 5.49355
C 15.46164 1.85812 4.23359
C 15.22076 -1.22368 6.27301
C 15.18970 2.28464 6.45438
O 15.13298 2.34835 7.68176
C 14.95392 3.64420 5.66545
C 15.87017 4.68468 6.24889
O 17.10402 4.57204 6.14158
O 15.13979 5.74354 6.64355
C 16.00541 6.80710 7.21919
H 14.25629 4.95045 -1.11511
H 15.99685 -0.91913 -2.35205
H 15.66663 -2.36195 3.75072
H 13.93818 5.88678 3.72186
H 14.27296 6.46571 0.98510
H 12.13420 5.03536 2.50825
H 12.32441 4.51179 0.82183
H 11.96351 6.18389 1.12759
H 16.40570 6.44293 2.05820
H 16.62481 6.02284 3.79622
H 14.68277 8.09835 3.62806
H 15.78534 8.41604 2.33644
H 15.02999 5.13352 -3.06668
H 14.88780 4.01423 -4.38051
H 16.51213 4.61913 -3.97753
H 16.05065 2.57004 -5.62046
H 17.41422 1.41822 -6.13106
H 17.67971 2.78892 -5.01566
H 16.61240 -2.95595 -0.94774
H 14.97291 -3.58502 1.45499
H 14.82987 -4.00363 -1.87191
H 13.84455 -2.57185 -1.40803
H 13.93173 -3.89496 -0.36045
H 17.10935 -4.78270 0.84423
H 16.98130 -4.30783 2.52741
H 18.56889 -3.27151 0.29409
H 19.12619 -3.60809 1.97365
H 18.20297 -2.09467 1.55947
H 15.82788 -0.95822 7.12826
H 15.51542 -2.18549 5.85847
H 14.14381 -1.16661 6.45244
H 13.90317 3.91245 5.78174
H 15.62419 7.02112 8.22246
H 15.98803 7.63562 6.48638
H 17.03645 6.55217 7.43465

