%nproc=24
%mem=175gb
#p cam-b3lyp/Def2SVP td=(nstates=5)

TDDFT excited states in gaussian

0 1
Mg 0.00000 0.00000 0.00000
C -0.21700 -2.21800 2.80100
C -1.25500 2.44200 2.02600
C -0.24500 1.85000 -2.56400
C 0.14600 -2.82400 -2.03700
N -0.61700 -0.00900 2.12600
C -0.59400 -0.90800 3.10500
C -0.93600 -0.30900 4.50200
C -1.77300 0.96400 4.03200
C -1.15500 1.16800 2.66000
C -3.26300 0.68500 3.86300
C 0.34500 0.11000 5.29900
C 0.12400 0.39700 6.78700
H 1.16800 0.03300 7.73300
N -0.18500 1.96100 -0.15200
C -0.70300 2.80000 0.77700
C -0.62000 4.15600 0.19300
C -0.18700 4.01500 -1.22500
C -0.21400 2.58300 -1.38000
C -0.88700 5.40600 0.97400
C 0.18100 5.01300 -2.27700
O 0.30300 4.69000 -3.50800
C 0.31000 6.41400 -1.83700
N -0.26500 -0.41300 -2.02900
C -0.27900 0.56900 -2.93700
C -0.19600 0.02400 -4.33200
C 0.12400 -1.53300 -4.18000
C 0.08600 -1.63200 -2.63500
C -1.45100 0.20500 -5.19700
C 1.37300 -2.07000 -4.92300
C 2.62600 -1.49000 -4.30600
N 0.15000 -2.14400 0.30300
C 0.17300 -3.13600 -0.68800
C 0.17300 -4.43800 0.00400
C 0.13300 -4.11100 1.35800
C 0.08300 -2.69500 1.50200
C 0.14900 -5.71500 -0.62300
C 0.09600 -4.62900 2.71600
O 0.20800 -5.74700 3.22100
C -0.25500 -3.42800 3.70100
C 0.71700 -3.48200 4.84800
O 1.93100 -3.25500 4.66900
O 0.03800 -3.55600 6.00300
C 0.94300 -3.58300 7.18300
H -1.85900 3.22000 2.49700
H -0.21800 2.45300 -3.47400
H 0.27600 -3.74700 -2.60500
H -1.55400 -0.94900 5.13200
H -1.58500 1.83100 4.66500
H -3.48400 -0.37700 3.96900
H -3.51100 1.02700 2.85800
H -3.85200 1.30100 4.54300
H 0.66900 1.09600 4.96600
H 1.13000 -0.63900 5.18900
H -0.84400 0.02600 7.12500
H 0.06200 1.47700 6.92100
H -1.34400 5.18600 1.93800
H -1.65100 5.96300 0.43200
H 0.00700 6.02000 1.08400
H -0.63500 6.74400 -1.40500
H 0.66500 6.97000 -2.70400
H 1.04800 6.46600 -1.03600
H 0.60800 0.50100 -4.89100
H -0.69200 -2.15600 -4.54700
H -1.26700 0.74000 -6.12900
H -2.20400 0.71400 -4.59600
H -1.96700 -0.72000 -5.45300
H 1.35600 -1.75900 -5.96700
H 1.45200 -3.15700 -4.90200
H 2.71400 -0.52200 -4.79800
H 3.48700 -2.12100 -4.52900
H 2.49500 -1.30300 -3.24000
H 0.86700 -6.33300 -0.08400
H 0.40400 -5.64200 -1.68000
H -0.89100 -5.99900 -0.46300
H -1.28300 -3.58100 4.02800
H 0.69800 -4.47800 7.75500
H 0.83300 -2.61900 7.68000
H 2.00000 -3.75400 6.97600
Mg 10.51150 0.95099 0.80791
C 8.86776 -1.46875 2.88685
C 8.11591 3.18166 1.76703
C 11.66567 2.96807 -1.35235
C 12.04866 -1.71028 -0.83540
N 8.76943 0.76232 2.15767
C 8.27987 -0.18774 2.94002
C 7.14447 0.28183 3.88867
C 6.63544 1.55001 3.04518
C 7.92615 1.88115 2.29879
C 5.56742 1.20254 2.02150
C 7.68256 0.70875 5.29942
C 6.60574 0.88313 6.37263
H 6.92604 0.50872 7.74730
N 10.28896 2.91565 0.63717
C 9.26724 3.66260 1.10561
C 9.56285 5.04633 0.70302
C 10.75844 5.03182 -0.18303
C 10.94230 3.60460 -0.35430
C 8.79216 6.22639 1.21966
C 11.58997 6.12221 -0.78784
O 12.43846 5.88438 -1.71861
C 11.31530 7.49003 -0.32403
N 11.52068 0.66843 -0.98766
C 11.95762 1.71669 -1.70750
C 12.88999 1.27147 -2.80879
C 13.18005 -0.27577 -2.52683
C 12.25403 -0.48905 -1.30930
C 12.36381 1.43884 -4.23410
C 14.66881 -0.70224 -2.40686
C 15.27957 -0.09972 -1.16213
N 10.63060 -1.18837 1.08536
C 11.30731 -2.11838 0.26608
C 11.00432 -3.46462 0.79359
C 10.14701 -3.22384 1.87781
C 9.91480 -1.82752 2.00383
C 11.46321 -4.69553 0.24551
C 9.37717 -3.83411 2.93781
O 9.25659 -4.97725 3.37649
C 8.41371 -2.73393 3.56050
C 8.52841 -2.81019 5.05835
O 9.59689 -2.52237 5.62589
O 7.30458 -2.99799 5.58499
C 7.36500 -3.06915 7.06928
H 7.28963 3.89086 1.82334
H 12.17555 3.62735 -2.05865
H 12.56785 -2.58535 -1.23209
H 6.33638 -0.42843 4.01636
H 6.35155 2.37084 3.69864
H 5.41115 0.13654 1.94830
H 5.92320 1.59835 1.07927
H 4.64202 1.74127 2.24452
H 8.05945 1.73804 5.24242
H 8.43015 0.02194 5.64587
H 5.64657 0.44643 6.06894
H 6.39262 1.94943 6.48035
H 7.86829 5.91463 1.72234
H 8.44883 6.79131 0.34625
H 9.39765 6.88212 1.84900
H 10.27435 7.73571 -0.52033
H 12.06895 8.11795 -0.80319
H 11.44701 7.52384 0.76322
H 13.82464 1.81727 -2.76842
H 12.79241 -0.91642 -3.33252
H 13.02297 2.05641 -4.87300
H 11.37209 1.86835 -4.18360
H 12.18599 0.50967 -4.77282
H 15.24282 -0.31568 -3.25257
H 14.80974 -1.77775 -2.38667
H 15.55621 0.90808 -1.48599
H 16.15365 -0.66807 -0.85067
H 14.53194 0.00312 -0.36707
H 11.77337 -5.31121 1.07932
H 12.27794 -4.53821 -0.45823
H 10.55216 -5.03942 -0.25148
H 7.40207 -2.95145 3.21577
H 6.90038 -4.01549 7.36294
H 6.88781 -2.13961 7.43260
H 8.34278 -3.16253 7.52718

