%nproc=24
%mem=175gb
#p cam-b3lyp/Def2SVP td=(nstates=5)

TDDFT excited states in gaussian

0 1
Mg 8.92490 0.80670 0.67424
C 8.49553 -1.98918 -1.53434
C 8.80901 2.81149 -2.08293
C 9.74959 3.24235 2.53297
C 10.13214 -1.43566 3.05333
N 8.67942 0.35217 -1.47644
C 8.46310 -0.74157 -2.19149
C 8.11735 -0.47787 -3.68162
C 8.80635 0.96438 -3.83676
C 8.73280 1.42800 -2.38338
C 10.26930 0.89205 -4.24158
C 6.57015 -0.40530 -3.93244
C 6.15401 -0.45907 -5.40407
H 4.91652 -1.15161 -5.75260
N 8.75534 2.76195 0.37961
C 8.69977 3.40442 -0.80590
C 8.59707 4.83603 -0.48323
C 8.76250 4.99859 0.98678
C 9.12421 3.64651 1.36246
C 8.28451 5.88200 -1.51360
C 8.63104 6.17878 1.90115
O 9.05245 6.14338 3.11110
C 8.07954 7.40718 1.31090
N 10.00759 0.92545 2.44512
C 10.17578 2.10138 3.07505
C 10.74473 1.90203 4.45959
C 10.69740 0.32493 4.72056
C 10.16889 -0.14312 3.34688
C 12.17049 2.41027 4.67244
C 9.95808 -0.15490 5.99955
C 8.47769 0.12527 5.87570
N 9.09263 -1.34068 0.84359
C 9.65305 -2.07066 1.91464
C 9.64578 -3.49477 1.52185
C 9.09846 -3.49205 0.22998
C 8.80531 -2.15825 -0.16313
C 10.14868 -4.57504 2.30045
C 8.71187 -4.31320 -0.89472
O 8.64650 -5.52373 -1.10469
C 8.42143 -3.36478 -2.13671
C 7.11651 -3.79106 -2.75151
O 6.05143 -3.67037 -2.12091
O 7.31203 -4.06578 -4.05407
C 6.04407 -4.48258 -4.71010
H 9.01384 3.50847 -2.89604
H 9.95430 4.03517 3.25616
H 10.40103 -2.20682 3.77838
H 8.55849 -1.17786 -4.38105
H 8.21692 1.61705 -4.47548
H 10.63716 -0.12324 -4.24316
H 10.80553 1.48762 -3.51441
H 10.41860 1.38692 -5.20550
H 6.21200 0.59914 -3.67249
H 6.05888 -1.17246 -3.38408
H 6.97469 -0.78876 -6.05271
H 5.93800 0.55771 -5.74098
H 8.37992 5.48487 -2.53173
H 9.06893 6.64343 -1.44445
H 7.31502 6.35753 -1.35044
H 8.70273 7.71785 0.47569
H 7.97967 8.11045 2.13995
H 7.08938 7.18323 0.89855
H 10.13500 2.39979 5.20361
H 11.70582 -0.10027 4.83077
H 12.25408 3.14309 5.49710
H 12.52153 2.84086 3.74405
H 12.91265 1.63709 4.86369
H 10.30781 0.40371 6.87121
H 10.10343 -1.20865 6.21280
H 8.39871 1.17356 6.17891
H 7.90847 -0.52174 6.54009
H 8.15052 0.05857 4.83159
H 9.42490 -5.37574 2.22620
H 10.30984 -4.27840 3.33477
H 11.08906 -4.77063 1.77824
H 9.25531 -3.47052 -2.83171
H 6.22747 -5.45937 -5.16827
H 5.77105 -3.65173 -5.38753
H 5.19811 -4.70461 -4.07018

