%nproc=24
%mem=175gb
#p cam-b3lyp/Def2SVP td=(nstates=5)

TDDFT excited states in gaussian

0 1
Mg 8.92662 0.80095 0.68524
C 8.79076 3.52250 3.02058
C 9.71760 -1.22084 3.31608
C 9.49504 -1.52247 -1.39947
C 9.25734 3.17266 -1.84682
N 9.19005 1.21431 2.84209
C 9.05261 2.27469 3.62378
C 9.12474 1.96709 5.14356
C 9.97293 0.60529 5.07329
C 9.58042 0.14495 3.67090
C 11.47562 0.83022 5.09905
C 7.70735 1.72915 5.77317
C 7.67493 1.72985 7.30311
H 6.50279 2.28500 7.97420
N 9.03624 -1.16293 0.94926
C 9.34859 -1.81457 2.08903
C 9.31291 -3.24708 1.75617
C 9.11559 -3.38259 0.28736
C 9.23132 -1.99757 -0.12304
C 9.37955 -4.32632 2.79744
C 8.87666 -4.56472 -0.60241
O 8.97151 -4.47771 -1.87766
C 8.62027 -5.84816 0.06732
N 9.53091 0.80818 -1.30401
C 9.65197 -0.33954 -1.99393
C 9.82786 -0.07284 -3.46984
C 9.55643 1.49181 -3.65902
C 9.34910 1.89307 -2.18207
C 11.19686 -0.42553 -4.05107
C 8.47216 1.89785 -4.69448
C 7.10786 1.46133 -4.21125
N 8.82756 2.95495 0.54911
C 9.02104 3.74655 -0.60415
C 8.96949 5.15952 -0.17604
C 8.77099 5.09116 1.21119
C 8.72378 3.73151 1.62180
C 9.14635 6.29161 -1.02056
C 8.60128 5.86005 2.42310
O 8.46908 7.05554 2.68205
C 8.73300 4.87892 3.66665
C 7.59050 5.16061 4.60360
O 6.41818 4.93116 4.25775
O 8.08121 5.44694 5.82327
C 6.98569 5.72289 6.79048
H 10.19151 -1.89685 4.02834
H 9.58879 -2.28483 -2.17632
H 9.25398 3.97223 -2.59069
H 9.65566 2.70588 5.73186
H 9.63405 -0.11000 5.81819
H 11.72709 1.87881 5.04104
H 11.86730 0.29921 4.24134
H 11.91390 0.34839 5.97773
H 7.39859 0.69388 5.57918
H 6.99873 2.44085 5.39640
H 8.59557 2.14104 7.73472
H 7.65557 0.69393 7.65026
H 9.68940 -3.92724 3.77115
H 10.19369 -4.99972 2.50835
H 8.45368 -4.90117 2.86811
H 9.46310 -6.09575 0.70826
H 8.38509 -6.55321 -0.73234
H 7.74969 -5.73303 0.72265
H 9.10297 -0.62819 -4.05227
H 10.45547 2.02234 -4.00557
H 11.14227 -1.14051 -4.89363
H 11.81368 -0.82181 -3.25543
H 11.78399 0.42320 -4.39767
H 8.64403 1.38464 -5.64381
H 8.45118 2.96231 -4.90303
H 7.06111 0.41237 -4.51878
H 6.32622 2.04809 -4.68958
H 7.05126 1.48682 -3.11681
H 8.38785 7.01047 -0.74053
H 9.06902 6.01980 -2.07123
H 10.16364 6.58292 -0.74573
H 9.70078 5.06857 4.13250
H 7.17944 6.71096 7.21929
H 6.97905 4.86382 7.48741
H 5.98708 5.85756 6.39163

