%nproc=24
%mem=175gb
#p cam-b3lyp/Def2SVP td=(nstates=5)

TDDFT excited states in gaussian

0 1
Mg 0.00000 0.00000 0.00000
C -0.21700 -2.21800 2.80100
C -1.25500 2.44200 2.02600
C -0.24500 1.85000 -2.56400
C 0.14600 -2.82400 -2.03700
N -0.61700 -0.00900 2.12600
C -0.59400 -0.90800 3.10500
C -0.93600 -0.30900 4.50200
C -1.77300 0.96400 4.03200
C -1.15500 1.16800 2.66000
C -3.26300 0.68500 3.86300
C 0.34500 0.11000 5.29900
C 0.12400 0.39700 6.78700
H 1.16800 0.03300 7.73300
N -0.18500 1.96100 -0.15200
C -0.70300 2.80000 0.77700
C -0.62000 4.15600 0.19300
C -0.18700 4.01500 -1.22500
C -0.21400 2.58300 -1.38000
C -0.88700 5.40600 0.97400
C 0.18100 5.01300 -2.27700
O 0.30300 4.69000 -3.50800
C 0.31000 6.41400 -1.83700
N -0.26500 -0.41300 -2.02900
C -0.27900 0.56900 -2.93700
C -0.19600 0.02400 -4.33200
C 0.12400 -1.53300 -4.18000
C 0.08600 -1.63200 -2.63500
C -1.45100 0.20500 -5.19700
C 1.37300 -2.07000 -4.92300
C 2.62600 -1.49000 -4.30600
N 0.15000 -2.14400 0.30300
C 0.17300 -3.13600 -0.68800
C 0.17300 -4.43800 0.00400
C 0.13300 -4.11100 1.35800
C 0.08300 -2.69500 1.50200
C 0.14900 -5.71500 -0.62300
C 0.09600 -4.62900 2.71600
O 0.20800 -5.74700 3.22100
C -0.25500 -3.42800 3.70100
C 0.71700 -3.48200 4.84800
O 1.93100 -3.25500 4.66900
O 0.03800 -3.55600 6.00300
C 0.94300 -3.58300 7.18300
H -1.85900 3.22000 2.49700
H -0.21800 2.45300 -3.47400
H 0.27600 -3.74700 -2.60500
H -1.55400 -0.94900 5.13200
H -1.58500 1.83100 4.66500
H -3.48400 -0.37700 3.96900
H -3.51100 1.02700 2.85800
H -3.85200 1.30100 4.54300
H 0.66900 1.09600 4.96600
H 1.13000 -0.63900 5.18900
H -0.84400 0.02600 7.12500
H 0.06200 1.47700 6.92100
H -1.34400 5.18600 1.93800
H -1.65100 5.96300 0.43200
H 0.00700 6.02000 1.08400
H -0.63500 6.74400 -1.40500
H 0.66500 6.97000 -2.70400
H 1.04800 6.46600 -1.03600
H 0.60800 0.50100 -4.89100
H -0.69200 -2.15600 -4.54700
H -1.26700 0.74000 -6.12900
H -2.20400 0.71400 -4.59600
H -1.96700 -0.72000 -5.45300
H 1.35600 -1.75900 -5.96700
H 1.45200 -3.15700 -4.90200
H 2.71400 -0.52200 -4.79800
H 3.48700 -2.12100 -4.52900
H 2.49500 -1.30300 -3.24000
H 0.86700 -6.33300 -0.08400
H 0.40400 -5.64200 -1.68000
H -0.89100 -5.99900 -0.46300
H -1.28300 -3.58100 4.02800
H 0.69800 -4.47800 7.75500
H 0.83300 -2.61900 7.68000
H 2.00000 -3.75400 6.97600
Mg 13.13291 1.18503 0.98936
C 14.15256 -1.48795 -1.17733
C 14.36362 3.34662 -1.34462
C 12.65908 3.53863 3.06385
C 13.04052 -1.13945 3.58435
N 14.10776 0.85153 -0.96785
C 14.38636 -0.20546 -1.71585
C 14.87213 0.13219 -3.15097
C 15.43138 1.61178 -2.87366
C 14.55965 1.98199 -1.67545
C 16.88508 1.63260 -2.43130
C 13.69769 0.14766 -4.19138
C 14.13717 0.16437 -5.65710
H 13.33094 -0.56260 -6.63381
N 13.00654 3.14457 0.70159
C 13.54670 3.85484 -0.31085
C 13.18465 5.25776 -0.05608
C 12.52702 5.33792 1.27652
C 12.72846 3.98380 1.75176
C 13.39640 6.34889 -1.06505
C 11.84278 6.45274 2.00809
O 11.55395 6.36332 3.25365
C 11.60502 7.68778 1.24674
N 13.09032 1.24596 3.06706
C 12.81073 2.38785 3.71961
C 12.56472 2.13121 5.18727
C 12.49913 0.54065 5.34019
C 12.82150 0.13308 3.88576
C 13.61529 2.69149 6.14580
C 11.22777 -0.05025 6.00889
C 10.02682 0.16758 5.11690
N 13.33850 -0.95851 1.16545
C 13.29103 -1.72549 2.35017
C 13.59737 -3.12179 1.97743
C 13.82626 -3.06584 0.59432
C 13.69320 -1.72569 0.14071
C 13.68291 -4.22289 2.87542
C 14.16063 -3.83402 -0.58330
O 14.30498 -5.03122 -0.82745
C 14.51108 -2.82621 -1.76139
C 13.77110 -3.27462 -2.99178
O 12.52844 -3.24243 -3.02884
O 14.65139 -3.45999 -3.99233
C 13.96388 -3.89470 -5.23739
H 14.92027 4.10068 -1.90178
H 12.38804 4.29456 3.80451
H 12.93528 -1.94000 4.31968
H 15.66777 -0.50250 -3.52232
H 15.22907 2.27398 -3.71147
H 17.26895 0.63756 -2.26192
H 16.90537 2.20709 -1.51446
H 17.49007 2.19176 -3.15078
H 13.18477 1.11658 -4.13797
H 13.02942 -0.67452 -4.02386
H 15.19868 -0.08651 -5.77202
H 14.06191 1.18862 -6.03029
H 14.04925 6.01946 -1.88276
H 13.96528 7.14045 -0.56537
H 12.45837 6.76784 -1.43552
H 12.55369 8.07753 0.88538
H 11.02735 8.33376 1.91073
H 11.00743 7.44343 0.36142
H 11.61783 2.55369 5.50033
H 13.32028 0.15703 5.96339
H 13.19236 3.37576 6.90539
H 14.37586 3.19379 5.56291
H 14.19398 1.94354 6.68516
H 11.01646 0.46988 6.94643
H 11.31224 -1.10711 6.23889
H 9.72276 1.19060 5.35786
H 9.23910 -0.54458 5.35432
H 10.31380 0.14949 4.05909
H 13.17066 -5.05046 2.40297
H 13.24476 -3.98268 3.84190
H 14.76804 -4.34219 2.93491
H 15.59233 -2.85036 -1.90240
H 14.43350 -4.83212 -5.55104
H 14.03590 -3.03774 -5.93322
H 12.92550 -4.19457 -5.15798

