%nproc=24
%mem=175gb
#p cam-b3lyp/Def2SVP td=(nstates=5)

TDDFT excited states in gaussian

0 1
Mg 0.00000 0.00000 0.00000
C -0.21700 -2.21800 2.80100
C -1.25500 2.44200 2.02600
C -0.24500 1.85000 -2.56400
C 0.14600 -2.82400 -2.03700
N -0.61700 -0.00900 2.12600
C -0.59400 -0.90800 3.10500
C -0.93600 -0.30900 4.50200
C -1.77300 0.96400 4.03200
C -1.15500 1.16800 2.66000
C -3.26300 0.68500 3.86300
C 0.34500 0.11000 5.29900
C 0.12400 0.39700 6.78700
H 1.16800 0.03300 7.73300
N -0.18500 1.96100 -0.15200
C -0.70300 2.80000 0.77700
C -0.62000 4.15600 0.19300
C -0.18700 4.01500 -1.22500
C -0.21400 2.58300 -1.38000
C -0.88700 5.40600 0.97400
C 0.18100 5.01300 -2.27700
O 0.30300 4.69000 -3.50800
C 0.31000 6.41400 -1.83700
N -0.26500 -0.41300 -2.02900
C -0.27900 0.56900 -2.93700
C -0.19600 0.02400 -4.33200
C 0.12400 -1.53300 -4.18000
C 0.08600 -1.63200 -2.63500
C -1.45100 0.20500 -5.19700
C 1.37300 -2.07000 -4.92300
C 2.62600 -1.49000 -4.30600
N 0.15000 -2.14400 0.30300
C 0.17300 -3.13600 -0.68800
C 0.17300 -4.43800 0.00400
C 0.13300 -4.11100 1.35800
C 0.08300 -2.69500 1.50200
C 0.14900 -5.71500 -0.62300
C 0.09600 -4.62900 2.71600
O 0.20800 -5.74700 3.22100
C -0.25500 -3.42800 3.70100
C 0.71700 -3.48200 4.84800
O 1.93100 -3.25500 4.66900
O 0.03800 -3.55600 6.00300
C 0.94300 -3.58300 7.18300
H -1.85900 3.22000 2.49700
H -0.21800 2.45300 -3.47400
H 0.27600 -3.74700 -2.60500
H -1.55400 -0.94900 5.13200
H -1.58500 1.83100 4.66500
H -3.48400 -0.37700 3.96900
H -3.51100 1.02700 2.85800
H -3.85200 1.30100 4.54300
H 0.66900 1.09600 4.96600
H 1.13000 -0.63900 5.18900
H -0.84400 0.02600 7.12500
H 0.06200 1.47700 6.92100
H -1.34400 5.18600 1.93800
H -1.65100 5.96300 0.43200
H 0.00700 6.02000 1.08400
H -0.63500 6.74400 -1.40500
H 0.66500 6.97000 -2.70400
H 1.04800 6.46600 -1.03600
H 0.60800 0.50100 -4.89100
H -0.69200 -2.15600 -4.54700
H -1.26700 0.74000 -6.12900
H -2.20400 0.71400 -4.59600
H -1.96700 -0.72000 -5.45300
H 1.35600 -1.75900 -5.96700
H 1.45200 -3.15700 -4.90200
H 2.71400 -0.52200 -4.79800
H 3.48700 -2.12100 -4.52900
H 2.49500 -1.30300 -3.24000
H 0.86700 -6.33300 -0.08400
H 0.40400 -5.64200 -1.68000
H -0.89100 -5.99900 -0.46300
H -1.28300 -3.58100 4.02800
H 0.69800 -4.47800 7.75500
H 0.83300 -2.61900 7.68000
H 2.00000 -3.75400 6.97600
Mg 8.92978 0.81204 0.68443
C 11.18454 0.96112 3.47242
C 6.45824 0.06871 2.91457
C 7.01741 0.23118 -1.77988
C 11.71781 0.43284 -1.37197
N 8.94345 0.57434 2.88342
C 9.84591 0.71524 3.84261
C 9.26759 0.66508 5.28226
C 7.93370 -0.17521 4.97642
C 7.73834 0.20177 3.50932
C 8.13718 -1.67885 5.06019
C 8.93190 2.09212 5.84162
C 8.65584 2.14465 7.34588
H 9.09047 3.32192 8.09260
N 6.94968 0.71851 0.58955
C 6.09974 0.42536 1.59600
C 4.75154 0.46586 1.00873
C 4.88596 0.64472 -0.46255
C 6.32134 0.51471 -0.61384
C 3.50106 0.41984 1.83795
C 3.88661 0.87950 -1.55451
O 4.20227 0.76734 -2.79169
C 2.50540 1.15291 -1.13144
N 9.29184 0.18161 -1.26334
C 8.28701 0.05886 -2.14830
C 8.81502 -0.13813 -3.54930
C 10.39036 0.12074 -3.45506
C 10.51933 0.34489 -1.93240
C 8.56151 -1.51236 -4.16866
C 10.98659 1.18867 -4.41251
C 10.48167 2.56199 -4.03245
N 11.07360 0.89547 0.93964
C 12.05923 0.68177 -0.04877
C 13.37171 0.72987 0.62761
C 13.05503 0.94703 1.97707
C 11.64396 1.00836 2.13397
C 14.63643 0.53466 0.00431
C 13.59320 1.12772 3.30614
O 14.72314 1.25564 3.77581
C 12.40200 1.01867 4.35282
C 12.51930 2.17155 5.31179
O 12.36647 3.34068 4.91632
O 12.57578 1.69509 6.56884
C 12.68154 2.80144 7.55708
H 5.66033 -0.39144 3.49809
H 6.40752 0.13212 -2.68083
H 12.63886 0.42129 -1.95867
H 9.88299 0.13721 6.00088
H 7.09833 0.17802 5.57537
H 9.17671 -1.93778 5.19607
H 7.76687 -2.07835 4.12514
H 7.50041 -2.10243 5.84213
H 7.95160 2.40494 5.45966
H 9.70620 2.79114 5.59171
H 8.97406 1.22714 7.85564
H 7.57439 2.17522 7.49936
H 3.71452 0.12027 2.87143
H 2.88408 -0.39369 1.44125
H 2.93099 1.35023 1.79241
H 2.13852 0.32019 -0.53610
H 1.95887 1.38208 -2.04832
H 2.50752 2.03127 -0.47639
H 8.38063 0.58259 -4.23119
H 10.96703 -0.78617 -3.68916
H 8.01141 -1.46427 -5.12738
H 8.02237 -2.11610 -3.45077
H 9.45384 -2.10943 -4.34882
H 10.65229 1.00763 -5.43702
H 12.07136 1.20007 -4.42500
H 9.50618 2.61142 -4.52546
H 11.15211 3.33348 -4.40573
H 10.30904 2.63281 -2.95225
H 15.29927 1.29214 0.40099
H 14.56005 0.59991 -1.07906
H 14.86431 -0.48078 0.33932
H 12.49575 0.05590 4.85667
H 13.57390 2.60701 8.16005
H 11.71056 2.82276 8.08671
H 12.89488 3.79384 7.17750

