%nproc=24
%mem=175gb
#p cam-b3lyp/Def2SVP td=(nstates=5)

TDDFT excited states in gaussian

0 1
Mg 10.51815 0.94882 0.80569
C 9.52508 -1.15575 3.53766
C 10.00906 3.61565 2.87051
C 10.95048 2.84555 -1.70089
C 9.84970 -1.73091 -1.31985
N 9.85338 1.08444 2.91091
C 9.56383 0.21511 3.86734
C 9.37958 0.84445 5.27431
C 8.98917 2.33497 4.82177
C 9.68718 2.36882 3.46371
C 7.49821 2.52471 4.59733
C 10.70451 0.82778 6.11473
C 10.52671 1.14152 7.60191
H 11.37987 0.45171 8.56563
N 10.95847 2.88199 0.71881
C 10.70038 3.81826 1.65586
C 11.20244 5.08698 1.10591
C 11.62899 4.85249 -0.30043
C 11.16642 3.49268 -0.49294
C 11.31638 6.34019 1.92439
C 12.32512 5.71441 -1.30973
O 12.38332 5.38833 -2.54792
C 12.85541 6.99627 -0.82278
N 10.21533 0.68138 -1.23370
C 10.53368 1.64798 -2.11249
C 10.48949 1.13175 -3.53092
C 10.30989 -0.45247 -3.40615
C 10.18642 -0.57305 -1.87135
C 9.37815 1.70184 -4.41200
C 11.35628 -1.33898 -4.13542
C 12.70957 -1.18565 -3.47932
N 9.99429 -1.13351 1.04549
C 9.73455 -2.07106 0.02195
C 9.30778 -3.32427 0.67752
C 9.32685 -3.01942 2.04690
C 9.71711 -1.66539 2.23071
C 8.92118 -4.52152 0.01175
C 9.09533 -3.53206 3.37817
O 8.83208 -4.63753 3.84975
C 9.09122 -2.31135 4.39613
C 9.96091 -2.67982 5.56676
O 11.18437 -2.84581 5.41770
O 9.24629 -2.56257 6.70075
C 10.06914 -2.90687 7.89080
H 9.66359 4.52720 3.35899
H 11.19269 3.42388 -2.59551
H 9.71803 -2.64142 -1.90832
H 8.57927 0.41315 5.86360
H 9.41947 3.07618 5.49021
H 6.95866 1.59173 4.66498
H 7.40138 2.94671 3.60558
H 7.10643 3.27922 5.28549
H 11.32860 1.67992 5.81624
H 11.21575 -0.10841 6.00152
H 9.47592 1.08820 7.91167
H 10.80367 2.18477 7.77200
H 10.77298 6.25173 2.87323
H 10.78468 7.12758 1.37926
H 12.35206 6.65219 2.07502
H 12.04425 7.58673 -0.40345
H 13.39486 7.42914 -1.66746
H 13.55548 6.79680 -0.00380
H 11.41826 1.34052 -4.04754
H 9.35021 -0.78805 -3.82595
H 9.75559 2.18260 -5.33422
H 8.80357 2.40534 -3.82422
H 8.61947 0.98452 -4.72034
H 11.47452 -1.01099 -5.17108
H 11.09018 -2.39047 -4.15900
H 13.10539 -0.27552 -3.93984
H 13.34058 -2.04490 -3.69738
H 12.60660 -0.99354 -2.40501
H 9.38807 -5.33895 0.54497
H 9.21759 -4.50783 -1.03502
H 7.83574 -4.46962 0.13172
H 8.05662 -2.13649 4.69377
H 9.53578 -3.69533 8.43074
H 10.23424 -1.95290 8.42598
H 11.02801 -3.38099 7.71697

