%nproc=24
%mem=175gb
#p cam-b3lyp/Def2SVP td=(nstates=5)

TDDFT excited states in gaussian

0 1
Mg 8.94332 0.80900 0.68145
C 10.01001 -1.32262 3.36425
C 8.92665 3.37640 2.92707
C 7.57633 2.61334 -1.54186
C 7.95717 -2.06520 -1.02506
N 9.42630 0.89137 2.83835
C 9.87970 0.03124 3.73776
C 10.28841 0.67171 5.09140
C 9.37783 1.99239 5.01721
C 9.26003 2.12316 3.50007
C 7.98385 1.79519 5.58928
C 11.81525 1.02908 5.14674
C 12.34574 1.37022 6.54100
H 13.70605 0.96656 6.88612
N 8.79954 2.78326 0.53929
C 8.83538 3.67664 1.55016
C 8.66786 4.99795 0.92548
C 8.36528 4.79938 -0.51804
C 8.21140 3.35900 -0.55940
C 8.87563 6.28338 1.67242
C 8.22359 5.74992 -1.66808
O 7.72310 5.38094 -2.78888
C 8.60138 7.14778 -1.41362
N 7.72405 0.36360 -0.94253
C 7.31044 1.32920 -1.78186
C 6.67957 0.74108 -3.02143
C 6.97463 -0.82908 -2.95001
C 7.67857 -0.89209 -1.57673
C 5.17606 0.96965 -3.17509
C 7.68487 -1.46813 -4.17469
C 9.10102 -0.94938 -4.27867
N 9.13120 -1.32182 0.98533
C 8.62302 -2.34915 0.16044
C 8.90265 -3.63106 0.83937
C 9.53867 -3.25634 2.03250
C 9.62963 -1.83988 2.10231
C 8.53298 -4.92136 0.36548
C 10.14425 -3.73649 3.25374
O 10.43063 -4.84515 3.70385
C 10.36307 -2.50073 4.22913
C 11.76464 -2.57809 4.76962
O 12.74225 -2.44450 4.01261
O 11.71892 -2.57907 6.11434
C 13.08572 -2.64355 6.69702
H 8.66891 4.19967 3.59391
H 7.18494 3.18363 -2.38748
H 7.76887 -3.01087 -1.53782
H 10.02767 0.08899 5.96675
H 9.89461 2.85245 5.43506
H 7.79542 0.76297 5.84455
H 7.30004 2.12513 4.81818
H 7.82660 2.46605 6.43873
H 11.97621 1.99133 4.64385
H 12.40622 0.24352 4.71748
H 11.64520 1.07595 7.33195
H 12.41060 2.45726 6.63122
H 8.92735 6.11555 2.75527
H 7.97007 6.88384 1.53357
H 9.73465 6.84942 1.30588
H 8.00011 7.54155 -0.59760
H 8.51638 7.65355 -2.37739
H 9.64380 7.17272 -1.07694
H 7.13696 1.14424 -3.91661
H 6.04790 -1.41392 -2.85522
H 4.90613 1.47745 -4.12026
H 4.82886 1.54048 -2.32413
H 4.56396 0.07130 -3.11594
H 7.17953 -1.17840 -5.09927
H 7.70518 -2.55242 -4.14495
H 8.97695 0.00367 -4.80155
H 9.71960 -1.63668 -4.85228
H 9.51362 -0.73006 -3.28706
H 9.38605 -5.56755 0.52429
H 8.24508 -4.89227 -0.68335
H 7.68236 -5.13281 1.01893
H 9.61498 -2.57091 5.01971
H 13.10687 -3.50853 7.36713
H 13.26428 -1.65050 7.15058
H 13.90570 -2.87480 6.02724

