%nproc=24
%mem=175gb
#p cam-b3lyp/Def2SVP td=(nstates=5)

TDDFT excited states in gaussian

0 1
Mg 15.75847 1.42307 1.20382
C 13.42842 -1.30140 1.03887
C 13.31737 3.39564 -0.13207
C 17.91807 3.72976 0.91619
C 18.30184 -0.94835 1.43477
N 13.68223 0.98809 0.57750
C 12.88543 -0.06913 0.61921
C 11.40393 0.22759 0.26330
C 11.62870 1.55155 -0.61732
C 12.93971 2.03539 -0.00100
C 11.87129 1.26136 -2.08915
C 10.53182 0.52386 1.53360
C 9.02073 0.51708 1.29210
H 8.14930 0.01014 2.34856
N 15.52411 3.37901 0.96314
C 14.46045 4.01086 0.42399
C 14.78580 5.44518 0.45600
C 16.19609 5.59634 0.90652
C 16.61647 4.20963 0.92657
C 13.77641 6.51539 0.15731
C 17.03231 6.79208 1.24875
O 18.30372 6.70728 1.38720
C 16.33133 8.08216 1.32505
N 17.82367 1.39931 0.96563
C 18.52751 2.54406 0.91981
C 20.01030 2.27718 1.02231
C 20.14329 0.72677 1.39124
C 18.65188 0.32767 1.34861
C 20.82790 2.57286 -0.23486
C 20.96706 0.37334 2.65976
C 20.24905 0.86640 3.89537
N 15.86833 -0.72389 1.41956
C 17.03527 -1.51749 1.47003
C 16.60065 -2.92896 1.50589
C 15.20049 -2.85884 1.45013
C 14.79208 -1.50044 1.36379
C 17.45984 -4.06352 1.53239
C 13.97550 -3.62554 1.43395
O 13.69356 -4.81541 1.56981
C 12.77842 -2.65717 1.03941
C 11.65152 -2.89350 2.00728
O 11.78293 -2.61160 3.21138
O 10.53837 -3.20688 1.31949
C 9.39010 -3.43966 2.23552
H 12.70329 4.04691 -0.75468
H 18.70141 4.49112 0.92957
H 19.03077 -1.74336 1.60591
H 10.91782 -0.53645 -0.33143
H 10.83734 2.27724 -0.44857
H 11.97021 0.20312 -2.28017
H 12.78676 1.77903 -2.34405
H 11.08652 1.71936 -2.69800
H 10.67056 1.57251 1.82656
H 10.77376 -0.15450 2.32853
H 8.75942 0.06413 0.32800
H 8.67877 1.55115 1.20387
H 12.87258 6.09844 -0.30383
H 14.20835 7.15416 -0.62068
H 13.54308 7.12960 1.02964
H 15.85210 8.28972 0.37126
H 17.07816 8.80068 1.66834
H 15.53061 8.00180 2.06869
H 20.45541 2.86639 1.81466
H 20.64338 0.15935 0.59262
H 21.64924 3.29365 -0.06186
H 20.15650 2.93803 -1.00063
H 21.27135 1.70110 -0.71298
H 21.93333 0.88324 2.63806
H 21.16536 -0.68816 2.76413
H 20.54637 1.91790 3.95047
H 20.57823 0.31654 4.77476
H 19.16204 0.83804 3.75655
H 17.04662 -4.75008 2.25929
H 18.48057 -3.78346 1.78429
H 17.37040 -4.40014 0.49607
H 12.49250 -2.89101 0.01319
H 8.99991 -4.43730 2.01160
H 8.70575 -2.58453 2.08001
H 9.60363 -3.52881 3.29425

