%nproc=24
%mem=175gb
#p cam-b3lyp/Def2SVP td=(nstates=5)

TDDFT excited states in gaussian

0 1
Mg 10.51734 0.94849 0.80653
C 10.45331 -2.15931 2.60000
C 9.28705 2.42746 3.62320
C 10.13662 3.61061 -0.87739
C 10.63941 -0.91271 -2.13740
N 9.98090 0.13396 2.79173
C 10.05707 -1.05140 3.37778
C 9.76505 -1.03514 4.90226
C 8.87525 0.30034 4.96242
C 9.43456 1.02206 3.73810
C 7.39443 0.04772 4.73286
C 11.07156 -0.89398 5.75964
C 10.89520 -1.18055 7.25247
H 11.98824 -1.83048 7.97033
N 10.28646 2.82593 1.40693
C 9.79334 3.24694 2.59051
C 9.81098 4.71685 2.53373
C 10.20046 5.12848 1.15766
C 10.20278 3.84296 0.48869
C 9.55565 5.58067 3.73458
C 10.50615 6.46038 0.54220
O 10.58989 6.61201 -0.72778
C 10.61217 7.60010 1.46485
N 10.19066 1.30304 -1.21583
C 10.11436 2.55730 -1.69431
C 10.15314 2.56855 -3.20387
C 10.51640 1.07210 -3.63547
C 10.53798 0.40517 -2.24258
C 8.86193 2.99929 -3.89930
C 11.74845 0.88657 -4.56298
C 13.01364 1.24922 -3.81923
N 10.72870 -1.13981 0.29427
C 10.72919 -1.70480 -0.99990
C 10.78405 -3.17179 -0.83448
C 10.78846 -3.36085 0.55574
C 10.71941 -2.10149 1.21054
C 10.77390 -4.12871 -1.88820
C 10.82511 -4.33988 1.61821
O 10.97327 -5.56016 1.67028
C 10.48212 -3.61146 2.98867
C 11.49756 -4.04312 4.01095
O 12.69484 -3.73205 3.88302
O 10.85831 -4.56149 5.07538
C 11.82288 -4.99402 6.12149
H 8.69123 2.94957 4.37239
H 10.11615 4.50315 -1.50703
H 10.77929 -1.55867 -3.00680
H 9.19194 -1.88039 5.26403
H 9.07766 0.86945 5.86603
H 7.19960 -0.97579 4.44894
H 7.10031 0.72285 3.93992
H 6.81974 0.34859 5.61350
H 11.35802 0.16465 5.80410
H 11.85554 -1.50976 5.36363
H 9.94333 -1.68168 7.46635
H 10.82148 -0.22777 7.78238
H 9.13387 5.00085 4.56483
H 8.75966 6.28162 3.46084
H 10.43705 6.14858 4.04000
H 9.67980 7.70819 2.01390
H 10.92288 8.44651 0.84927
H 11.38954 7.37990 2.20500
H 10.92549 3.23601 -3.56591
H 9.69718 0.59985 -4.19734
H 8.99931 3.86025 -4.58044
H 8.12562 3.22849 -3.14045
H 8.36542 2.22010 -4.47509
H 11.68513 1.56531 -5.41707
H 11.84447 -0.11946 -4.95754
H 13.05566 2.33788 -3.91994
H 13.87822 0.77648 -4.28081
H 12.92165 1.02029 -2.75116
H 11.51805 -4.87361 -1.63948
H 10.98165 -3.66364 -2.84962
H 9.74246 -4.48448 -1.81864
H 9.46918 -3.90226 3.26967
H 11.61617 -6.04820 6.33043
H 11.69669 -4.28065 6.95751
H 12.87148 -5.03374 5.85073

