%nproc=24
%mem=175gb
#p cam-b3lyp/Def2SVP td=(nstates=5)

TDDFT excited states in gaussian

0 1
Mg 31.52583 2.83418 2.40209
C 30.92029 5.52269 4.70085
C 32.72646 1.04331 5.04517
C 32.48559 0.62221 0.33969
C 31.36271 5.18082 -0.16937
N 31.74301 3.32756 4.54724
C 31.42193 4.35696 5.31638
C 31.57600 4.09519 6.83865
C 32.66360 2.91561 6.77094
C 32.34112 2.36518 5.38324
C 34.09750 3.41880 6.76382
C 30.23928 3.60678 7.49945
C 30.23293 3.62835 9.02956
H 28.98877 3.96556 9.71574
N 32.00681 0.93067 2.69169
C 32.45505 0.36937 3.83419
C 32.68352 -1.05006 3.52244
C 32.49060 -1.24604 2.05988
C 32.33721 0.12865 1.62769
C 32.96912 -2.07912 4.57738
C 32.46312 -2.46750 1.19185
O 32.51857 -2.38675 -0.08613
C 32.46362 -3.76424 1.88464
N 32.08461 2.91954 0.40138
C 32.40754 1.80291 -0.27446
C 32.50546 2.07181 -1.75719
C 31.94183 3.55420 -1.96313
C 31.68758 3.93543 -0.48820
C 33.90642 1.97194 -2.36029
C 30.78340 3.73137 -2.98261
C 29.53367 3.05530 -2.46638
N 31.02166 4.92863 2.23743
C 31.04366 5.72201 1.06946
C 30.73478 7.10756 1.47844
C 30.57591 7.02766 2.87016
C 30.79183 5.69073 3.30085
C 30.68168 8.23767 0.61463
C 30.28511 7.77231 4.07416
O 29.93505 8.92618 4.31870
C 30.61959 6.85538 5.32865
C 29.46037 6.93427 6.28390
O 28.34639 6.48296 5.96456
O 29.90891 7.32901 7.48945
C 28.79741 7.41161 8.47411
H 33.33076 0.48084 5.75744
H 32.70785 -0.12262 -0.42797
H 31.19676 5.95232 -0.92429
H 31.96846 4.93070 7.40581
H 32.47763 2.16270 7.53246
H 34.14652 4.49476 6.68600
H 34.56754 2.95564 5.90615
H 34.63314 3.04329 7.64041
H 30.12728 2.52872 7.32628
H 29.40338 4.16619 7.12670
H 31.06703 4.21246 9.43703
H 30.41431 2.61347 9.39168
H 33.21475 -1.61190 5.53903
H 33.89031 -2.59287 4.28184
H 32.16904 -2.81607 4.67448
H 33.34857 -3.83803 2.51225
H 32.35171 -4.51488 1.09985
H 31.59802 -3.80290 2.55534
H 31.88815 1.38017 -2.31725
H 32.71928 4.23774 -2.33485
H 33.97301 1.24466 -3.19139
H 34.59992 1.71246 -1.57146
H 34.31778 2.90948 -2.73042
H 31.03270 3.24283 -3.92778
H 30.55936 4.76915 -3.20577
H 29.67966 2.01093 -2.75803
H 28.64783 3.47653 -2.93745
H 29.49162 3.08901 -1.37151
H 29.80644 8.80634 0.89938
H 30.63920 7.93770 -0.43035
H 31.63059 8.71941 0.86516
H 31.54218 7.23136 5.77255
H 28.80926 8.42588 8.88497
H 28.96392 6.57896 9.18314
H 27.78474 7.34954 8.09320

