%nproc=24
%mem=175gb
#p cam-b3lyp/Def2SVP td=(nstates=5)

TDDFT excited states in gaussian

0 1
Mg 0.00000 0.00000 0.00000
C -0.21700 -2.21800 2.80100
C -1.25500 2.44200 2.02600
C -0.24500 1.85000 -2.56400
C 0.14600 -2.82400 -2.03700
N -0.61700 -0.00900 2.12600
C -0.59400 -0.90800 3.10500
C -0.93600 -0.30900 4.50200
C -1.77300 0.96400 4.03200
C -1.15500 1.16800 2.66000
C -3.26300 0.68500 3.86300
C 0.34500 0.11000 5.29900
C 0.12400 0.39700 6.78700
H 1.16800 0.03300 7.73300
N -0.18500 1.96100 -0.15200
C -0.70300 2.80000 0.77700
C -0.62000 4.15600 0.19300
C -0.18700 4.01500 -1.22500
C -0.21400 2.58300 -1.38000
C -0.88700 5.40600 0.97400
C 0.18100 5.01300 -2.27700
O 0.30300 4.69000 -3.50800
C 0.31000 6.41400 -1.83700
N -0.26500 -0.41300 -2.02900
C -0.27900 0.56900 -2.93700
C -0.19600 0.02400 -4.33200
C 0.12400 -1.53300 -4.18000
C 0.08600 -1.63200 -2.63500
C -1.45100 0.20500 -5.19700
C 1.37300 -2.07000 -4.92300
C 2.62600 -1.49000 -4.30600
N 0.15000 -2.14400 0.30300
C 0.17300 -3.13600 -0.68800
C 0.17300 -4.43800 0.00400
C 0.13300 -4.11100 1.35800
C 0.08300 -2.69500 1.50200
C 0.14900 -5.71500 -0.62300
C 0.09600 -4.62900 2.71600
O 0.20800 -5.74700 3.22100
C -0.25500 -3.42800 3.70100
C 0.71700 -3.48200 4.84800
O 1.93100 -3.25500 4.66900
O 0.03800 -3.55600 6.00300
C 0.94300 -3.58300 7.18300
H -1.85900 3.22000 2.49700
H -0.21800 2.45300 -3.47400
H 0.27600 -3.74700 -2.60500
H -1.55400 -0.94900 5.13200
H -1.58500 1.83100 4.66500
H -3.48400 -0.37700 3.96900
H -3.51100 1.02700 2.85800
H -3.85200 1.30100 4.54300
H 0.66900 1.09600 4.96600
H 1.13000 -0.63900 5.18900
H -0.84400 0.02600 7.12500
H 0.06200 1.47700 6.92100
H -1.34400 5.18600 1.93800
H -1.65100 5.96300 0.43200
H 0.00700 6.02000 1.08400
H -0.63500 6.74400 -1.40500
H 0.66500 6.97000 -2.70400
H 1.04800 6.46600 -1.03600
H 0.60800 0.50100 -4.89100
H -0.69200 -2.15600 -4.54700
H -1.26700 0.74000 -6.12900
H -2.20400 0.71400 -4.59600
H -1.96700 -0.72000 -5.45300
H 1.35600 -1.75900 -5.96700
H 1.45200 -3.15700 -4.90200
H 2.71400 -0.52200 -4.79800
H 3.48700 -2.12100 -4.52900
H 2.49500 -1.30300 -3.24000
H 0.86700 -6.33300 -0.08400
H 0.40400 -5.64200 -1.68000
H -0.89100 -5.99900 -0.46300
H -1.28300 -3.58100 4.02800
H 0.69800 -4.47800 7.75500
H 0.83300 -2.61900 7.68000
H 2.00000 -3.75400 6.97600
Mg 13.14499 1.19109 0.99977
C 12.62166 1.73847 4.50770
C 12.01468 4.36830 0.48760
C 13.16676 0.59040 -2.11570
C 13.13257 -2.22831 1.67305
N 12.43920 2.75373 2.39701
C 12.34276 2.86982 3.71290
C 12.00152 4.30053 4.20907
C 11.28781 4.85198 2.88039
C 11.97754 3.96463 1.84619
C 9.79591 4.56635 2.83585
C 13.28425 5.13331 4.55992
C 13.02013 6.42335 5.33954
H 13.99526 6.84253 6.34247
N 13.13445 2.43347 -0.54779
C 12.65756 3.69567 -0.57476
C 12.86458 4.17466 -1.95021
C 13.35178 3.03587 -2.77515
C 13.21371 1.94692 -1.82899
C 12.67928 5.61008 -2.34852
C 13.84645 2.94032 -4.18666
O 13.99367 1.81038 -4.77353
C 14.06434 4.21149 -4.89245
N 12.93789 -0.56117 -0.09980
C 13.03918 -0.55205 -1.44054
C 13.13240 -1.95551 -1.99009
C 13.31680 -2.90440 -0.71604
C 13.20388 -1.84787 0.40484
C 11.93208 -2.43050 -2.80863
C 14.54711 -3.85255 -0.71687
C 15.82115 -3.04495 -0.61695
N 13.10617 -0.04522 2.77124
C 13.08031 -1.45602 2.82641
C 12.94168 -1.83367 4.24788
C 12.87281 -0.60638 4.92428
C 12.94189 0.46078 3.98839
C 12.84677 -3.16211 4.75025
C 12.74669 0.02899 6.21622
O 12.73601 -0.36623 7.38130
C 12.45122 1.57464 5.99253
C 13.36653 2.35764 6.89345
O 14.59748 2.33501 6.71777
O 12.62915 3.17065 7.67169
C 13.49308 3.97621 8.57530
H 11.46424 5.26358 0.19713
H 13.28259 0.32694 -3.16957
H 13.21953 -3.27437 1.97449
H 11.31284 4.33939 5.04452
H 11.52911 5.89754 2.70732
H 9.48224 3.93379 3.65293
H 9.61852 4.07562 1.88782
H 9.23354 5.50378 2.79985
H 13.70168 5.55418 3.63615
H 13.99676 4.53079 5.08901
H 12.00514 6.45400 5.75404
H 13.04988 7.26317 4.64110
H 12.15789 6.17965 -1.56933
H 11.98939 5.61933 -3.19931
H 13.61458 6.08857 -2.64673
H 13.13456 4.77484 -4.91711
H 14.50205 3.93999 -5.85504
H 14.78062 4.81125 -4.31988
H 13.99590 -2.06165 -2.63523
H 12.46440 -3.58813 -0.59045
H 12.20216 -2.75552 -3.83112
H 11.20468 -1.63038 -2.84365
H 11.36088 -3.24264 -2.36212
H 14.60113 -4.40206 -1.65989
H 14.52788 -4.58581 0.08248
H 16.00525 -2.74525 -1.65299
H 16.63412 -3.65788 -0.23297
H 15.66302 -2.13108 -0.03258
H 13.48055 -3.20990 5.62577
H 13.14600 -3.89263 4.00154
H 11.77657 -3.21228 4.96800
H 11.40017 1.74482 6.22896
H 13.14632 3.79208 9.59683
H 13.42947 5.01539 8.20138
H 14.53696 3.69545 8.65246

