%nproc=24
%mem=175gb
#p cam-b3lyp/Def2SVP td=(nstates=5)

TDDFT excited states in gaussian

0 1
Mg 13.14615 1.18554 0.99116
C 12.63543 4.73143 0.77936
C 12.53005 1.04719 -2.36084
C 13.14447 -1.97892 1.22274
C 12.59255 1.45076 4.42174
N 12.65841 2.75451 -0.48962
C 12.55175 4.07452 -0.46599
C 12.42386 4.73461 -1.86509
C 11.83326 3.47742 -2.67104
C 12.40101 2.34853 -1.81316
C 10.31654 3.39357 -2.62795
C 13.81136 5.18634 -2.44196
C 13.73169 6.11161 -3.65822
H 14.73718 7.16085 -3.80160
N 13.36139 -0.20471 -0.40865
C 13.08519 -0.08452 -1.72415
C 13.39402 -1.39304 -2.32127
C 13.71833 -2.34460 -1.22397
C 13.39329 -1.53404 -0.06750
C 13.44078 -1.62001 -3.80442
C 14.22367 -3.75555 -1.21691
O 14.20822 -4.47100 -0.15355
C 14.65027 -4.30561 -2.51187
N 12.69629 -0.11384 2.55051
C 12.82757 -1.44373 2.40192
C 12.71584 -2.15460 3.72954
C 12.72359 -1.00065 4.83675
C 12.74976 0.23657 3.91263
C 11.47522 -3.02822 3.91402
C 13.79301 -1.10841 5.95810
C 15.17364 -0.90887 5.37548
N 12.87809 2.79866 2.40327
C 12.63416 2.68694 3.78966
C 12.40747 4.05339 4.30334
C 12.51331 4.86954 3.16703
C 12.76664 4.06633 2.02240
C 12.09806 4.39518 5.65002
C 12.45780 6.22688 2.67385
O 12.36051 7.33717 3.19494
C 12.40882 6.18589 1.08567
C 13.41348 7.17650 0.56426
O 14.62988 7.00427 0.75749
O 12.79292 8.04227 -0.25776
C 13.75025 9.03801 -0.80898
H 12.13058 0.86216 -3.35838
H 13.24178 -3.05604 1.37707
H 12.51072 1.62706 5.49640
H 11.73096 5.56607 -1.91346
H 12.23642 3.42984 -3.67928
H 9.89115 4.12908 -1.96146
H 10.08686 2.39358 -2.28399
H 9.90611 3.46615 -3.63919
H 14.30904 4.32031 -2.89700
H 14.41069 5.64349 -1.67879
H 12.72456 6.52279 -3.79806
H 13.90590 5.51722 -4.55843
H 12.99609 -0.78115 -4.35394
H 12.77963 -2.46650 -4.01936
H 14.44499 -1.85597 -4.16297
H 13.81907 -4.26734 -3.21195
H 15.06227 -5.29175 -2.28904
H 15.43743 -3.66345 -2.92253
H 13.56684 -2.80432 3.89315
H 11.77353 -0.95996 5.38952
H 11.71472 -4.08083 4.15636
H 10.88061 -2.97152 3.01194
H 10.77603 -2.68290 4.67368
H 13.78275 -2.10943 6.39627
H 13.64336 -0.40120 6.76708
H 15.42467 -1.90158 4.99002
H 15.87383 -0.59663 6.14768
H 15.14510 -0.22142 4.52211
H 12.69730 5.26147 5.89692
H 12.29784 3.56673 6.32642
H 11.02831 4.60123 5.55809
H 11.39150 6.43656 0.78271
H 13.35664 10.02931 -0.56386
H 13.85569 8.78902 -1.88166
H 14.73648 9.08567 -0.36231

