%nproc=24
%mem=175gb
#p cam-b3lyp/Def2SVP td=(nstates=5)

TDDFT excited states in gaussian

0 1
Mg 0.00000 0.00000 0.00000
C -0.21700 -2.21800 2.80100
C -1.25500 2.44200 2.02600
C -0.24500 1.85000 -2.56400
C 0.14600 -2.82400 -2.03700
N -0.61700 -0.00900 2.12600
C -0.59400 -0.90800 3.10500
C -0.93600 -0.30900 4.50200
C -1.77300 0.96400 4.03200
C -1.15500 1.16800 2.66000
C -3.26300 0.68500 3.86300
C 0.34500 0.11000 5.29900
C 0.12400 0.39700 6.78700
H 1.16800 0.03300 7.73300
N -0.18500 1.96100 -0.15200
C -0.70300 2.80000 0.77700
C -0.62000 4.15600 0.19300
C -0.18700 4.01500 -1.22500
C -0.21400 2.58300 -1.38000
C -0.88700 5.40600 0.97400
C 0.18100 5.01300 -2.27700
O 0.30300 4.69000 -3.50800
C 0.31000 6.41400 -1.83700
N -0.26500 -0.41300 -2.02900
C -0.27900 0.56900 -2.93700
C -0.19600 0.02400 -4.33200
C 0.12400 -1.53300 -4.18000
C 0.08600 -1.63200 -2.63500
C -1.45100 0.20500 -5.19700
C 1.37300 -2.07000 -4.92300
C 2.62600 -1.49000 -4.30600
N 0.15000 -2.14400 0.30300
C 0.17300 -3.13600 -0.68800
C 0.17300 -4.43800 0.00400
C 0.13300 -4.11100 1.35800
C 0.08300 -2.69500 1.50200
C 0.14900 -5.71500 -0.62300
C 0.09600 -4.62900 2.71600
O 0.20800 -5.74700 3.22100
C -0.25500 -3.42800 3.70100
C 0.71700 -3.48200 4.84800
O 1.93100 -3.25500 4.66900
O 0.03800 -3.55600 6.00300
C 0.94300 -3.58300 7.18300
H -1.85900 3.22000 2.49700
H -0.21800 2.45300 -3.47400
H 0.27600 -3.74700 -2.60500
H -1.55400 -0.94900 5.13200
H -1.58500 1.83100 4.66500
H -3.48400 -0.37700 3.96900
H -3.51100 1.02700 2.85800
H -3.85200 1.30100 4.54300
H 0.66900 1.09600 4.96600
H 1.13000 -0.63900 5.18900
H -0.84400 0.02600 7.12500
H 0.06200 1.47700 6.92100
H -1.34400 5.18600 1.93800
H -1.65100 5.96300 0.43200
H 0.00700 6.02000 1.08400
H -0.63500 6.74400 -1.40500
H 0.66500 6.97000 -2.70400
H 1.04800 6.46600 -1.03600
H 0.60800 0.50100 -4.89100
H -0.69200 -2.15600 -4.54700
H -1.26700 0.74000 -6.12900
H -2.20400 0.71400 -4.59600
H -1.96700 -0.72000 -5.45300
H 1.35600 -1.75900 -5.96700
H 1.45200 -3.15700 -4.90200
H 2.71400 -0.52200 -4.79800
H 3.48700 -2.12100 -4.52900
H 2.49500 -1.30300 -3.24000
H 0.86700 -6.33300 -0.08400
H 0.40400 -5.64200 -1.68000
H -0.89100 -5.99900 -0.46300
H -1.28300 -3.58100 4.02800
H 0.69800 -4.47800 7.75500
H 0.83300 -2.61900 7.68000
H 2.00000 -3.75400 6.97600
Mg 31.53597 2.84651 2.40175
C 32.51904 0.94395 5.28149
C 29.33047 4.48531 4.42280
C 30.33306 4.22120 -0.19261
C 32.94660 0.33847 0.43565
N 31.07699 2.65101 4.55660
C 31.55762 1.93680 5.56319
C 31.03401 2.36204 6.96125
C 29.65848 3.05257 6.50304
C 30.04910 3.45678 5.08293
C 28.49485 2.07875 6.41947
C 31.98520 3.39023 7.66842
C 31.70028 3.61249 9.15542
H 32.82791 3.85086 10.05214
N 30.41845 4.47558 2.21245
C 29.59945 5.01293 3.14077
C 28.98938 6.19119 2.50540
C 29.38927 6.21099 1.07208
C 30.06012 4.93068 0.96786
C 28.18671 7.20365 3.26964
C 29.18852 7.21042 -0.02657
O 29.41202 6.91595 -1.25383
C 28.63373 8.51400 0.36634
N 31.43553 2.25584 0.41093
C 30.90681 3.06442 -0.52426
C 31.19169 2.54937 -1.91492
C 32.23324 1.35088 -1.72421
C 32.30495 1.32099 -0.18169
C 29.97947 2.04962 -2.70053
C 33.56166 1.43892 -2.52434
C 34.39974 2.58651 -2.00856
N 32.71243 1.06927 2.75592
C 33.17602 0.14713 1.79217
C 33.83066 -0.95612 2.52477
C 33.68107 -0.60790 3.87564
C 32.96483 0.61518 3.97844
C 34.41353 -2.11426 1.93733
C 33.95693 -1.00224 5.23839
O 34.60675 -1.90311 5.76743
C 33.10643 -0.07917 6.21359
C 34.01947 0.40932 7.30457
O 34.96717 1.17058 7.04199
O 33.49720 0.07530 8.49874
C 34.36153 0.54805 9.61285
H 28.45030 4.90090 4.91421
H 30.03570 4.70844 -1.12408
H 33.49677 -0.43205 -0.10867
H 30.83049 1.54162 7.63894
H 29.43892 3.93189 7.10300
H 28.81268 1.05750 6.56834
H 28.07669 2.20434 5.42931
H 27.70678 2.37217 7.11888
H 31.77387 4.39643 7.28418
H 33.01276 3.11289 7.53489
H 31.03755 2.84197 9.56779
H 31.13353 4.54025 9.26526
H 27.92324 6.83662 4.26928
H 27.22501 7.30386 2.75490
H 28.67029 8.18206 3.30870
H 27.66826 8.36631 0.84437
H 28.64727 9.12251 -0.53997
H 29.29224 8.96201 1.11884
H 31.64858 3.31812 -2.52597
H 31.80679 0.38668 -2.03771
H 29.84429 2.56599 -3.66963
H 29.09983 2.16630 -2.08154
H 29.97387 0.98150 -2.91096
H 33.35673 1.65251 -3.57626
H 34.14828 0.52697 -2.48925
H 33.98347 3.45152 -2.53350
H 35.44797 2.43884 -2.26046
H 34.23650 2.74202 -0.93580
H 35.35254 -2.28309 2.44748
H 34.55920 -1.98655 0.86670
H 33.64192 -2.85578 2.16103
H 32.28735 -0.68355 6.60526
H 34.59871 -0.32655 10.22645
H 33.79999 1.36753 10.09956
H 35.35332 0.90497 9.36101

