%nproc=24
%mem=175gb
#p cam-b3lyp/Def2SVP td=(nstates=5)

TDDFT excited states in gaussian

0 1
Mg 0.00000 0.00000 0.00000
C -0.21700 -2.21800 2.80100
C -1.25500 2.44200 2.02600
C -0.24500 1.85000 -2.56400
C 0.14600 -2.82400 -2.03700
N -0.61700 -0.00900 2.12600
C -0.59400 -0.90800 3.10500
C -0.93600 -0.30900 4.50200
C -1.77300 0.96400 4.03200
C -1.15500 1.16800 2.66000
C -3.26300 0.68500 3.86300
C 0.34500 0.11000 5.29900
C 0.12400 0.39700 6.78700
H 1.16800 0.03300 7.73300
N -0.18500 1.96100 -0.15200
C -0.70300 2.80000 0.77700
C -0.62000 4.15600 0.19300
C -0.18700 4.01500 -1.22500
C -0.21400 2.58300 -1.38000
C -0.88700 5.40600 0.97400
C 0.18100 5.01300 -2.27700
O 0.30300 4.69000 -3.50800
C 0.31000 6.41400 -1.83700
N -0.26500 -0.41300 -2.02900
C -0.27900 0.56900 -2.93700
C -0.19600 0.02400 -4.33200
C 0.12400 -1.53300 -4.18000
C 0.08600 -1.63200 -2.63500
C -1.45100 0.20500 -5.19700
C 1.37300 -2.07000 -4.92300
C 2.62600 -1.49000 -4.30600
N 0.15000 -2.14400 0.30300
C 0.17300 -3.13600 -0.68800
C 0.17300 -4.43800 0.00400
C 0.13300 -4.11100 1.35800
C 0.08300 -2.69500 1.50200
C 0.14900 -5.71500 -0.62300
C 0.09600 -4.62900 2.71600
O 0.20800 -5.74700 3.22100
C -0.25500 -3.42800 3.70100
C 0.71700 -3.48200 4.84800
O 1.93100 -3.25500 4.66900
O 0.03800 -3.55600 6.00300
C 0.94300 -3.58300 7.18300
H -1.85900 3.22000 2.49700
H -0.21800 2.45300 -3.47400
H 0.27600 -3.74700 -2.60500
H -1.55400 -0.94900 5.13200
H -1.58500 1.83100 4.66500
H -3.48400 -0.37700 3.96900
H -3.51100 1.02700 2.85800
H -3.85200 1.30100 4.54300
H 0.66900 1.09600 4.96600
H 1.13000 -0.63900 5.18900
H -0.84400 0.02600 7.12500
H 0.06200 1.47700 6.92100
H -1.34400 5.18600 1.93800
H -1.65100 5.96300 0.43200
H 0.00700 6.02000 1.08400
H -0.63500 6.74400 -1.40500
H 0.66500 6.97000 -2.70400
H 1.04800 6.46600 -1.03600
H 0.60800 0.50100 -4.89100
H -0.69200 -2.15600 -4.54700
H -1.26700 0.74000 -6.12900
H -2.20400 0.71400 -4.59600
H -1.96700 -0.72000 -5.45300
H 1.35600 -1.75900 -5.96700
H 1.45200 -3.15700 -4.90200
H 2.71400 -0.52200 -4.79800
H 3.48700 -2.12100 -4.52900
H 2.49500 -1.30300 -3.24000
H 0.86700 -6.33300 -0.08400
H 0.40400 -5.64200 -1.68000
H -0.89100 -5.99900 -0.46300
H -1.28300 -3.58100 4.02800
H 0.69800 -4.47800 7.75500
H 0.83300 -2.61900 7.68000
H 2.00000 -3.75400 6.97600
Mg 8.94081 0.80879 0.68568
C 8.56298 -1.41003 3.48088
C 7.82746 3.31417 2.71500
C 8.83242 2.69229 -1.86542
C 8.91601 -2.00354 -1.37244
N 8.30874 0.82557 2.80522
C 8.26578 -0.06509 3.78462
C 7.96079 0.53242 5.18445
C 7.20140 1.86754 4.71576
C 7.83949 2.04117 3.33904
C 5.70574 1.67484 4.52812
C 9.26582 0.86627 5.98910
C 9.04749 1.16174 7.47463
H 10.06627 0.72942 8.42734
N 8.88322 2.78804 0.55213
C 8.42007 3.65300 1.47874
C 8.57796 4.99307 0.89270
C 9.01910 4.83817 -0.52014
C 8.90617 3.40180 -0.67558
C 8.39344 6.25462 1.68509
C 9.45641 5.82155 -1.56318
O 9.56738 5.49038 -2.79640
C 9.66070 7.20643 -1.11386
N 8.67037 0.42521 -1.33968
C 8.71863 1.41909 -2.24400
C 8.77400 0.87398 -3.65119
C 8.99782 -0.70161 -3.49308
C 8.94142 -0.81200 -1.95359
C 7.53689 1.12814 -4.51220
C 10.21624 -1.31723 -4.23412
C 11.50237 -0.81618 -3.61751
N 8.95800 -1.33198 0.97699
C 8.91825 -2.32912 -0.02211
C 8.83167 -3.63288 0.66719
C 8.80363 -3.29988 2.02984
C 8.84780 -1.88729 2.17864
C 8.74156 -4.90440 0.03376
C 8.73599 -3.82168 3.37589
O 8.76692 -4.94615 3.87423
C 8.44957 -2.61615 4.37140
C 9.40868 -2.72822 5.52468
O 10.63137 -2.58812 5.34580
O 8.71200 -2.76511 6.67518
C 9.62016 -2.86497 7.84869
H 7.27621 4.12261 3.19607
H 8.90345 3.29090 -2.77652
H 9.00288 -2.93213 -1.94064
H 7.30619 -0.07008 5.80273
H 7.44759 2.70843 5.35892
H 5.41746 0.63886 4.62707
H 5.48539 2.03537 3.53187
H 5.15312 2.32453 5.21283
H 9.65114 1.83943 5.65862
H 9.99178 0.08428 5.87909
H 8.05012 0.85614 7.81344
H 9.05917 2.24490 7.61837
H 7.90983 6.05669 2.64963
H 7.67058 6.87154 1.14033
H 9.32161 6.81806 1.80216
H 8.73716 7.58644 -0.68359
H 10.05684 7.73937 -1.98042
H 10.40587 7.20728 -0.31054
H 9.61003 1.29473 -4.19628
H 8.14332 -1.27548 -3.88080
H 7.76257 1.66526 -5.45276
H 6.81785 1.68054 -3.92197
H 6.97458 0.23737 -4.78704
H 10.22662 -0.99527 -5.27833
H 10.22029 -2.40211 -4.23156
H 11.64874 0.15241 -4.10485
H 12.32285 -1.49641 -3.83693
H 11.37793 -0.62982 -2.54446
H 9.40890 -5.56682 0.56889
H 9.00256 -4.84269 -1.02068
H 7.68030 -5.12133 0.18192
H 7.41070 -2.69708 4.69356
H 9.31201 -3.74806 8.41691
H 9.55367 -1.88727 8.36195
H 10.66299 -3.08964 7.65772

