%nproc=24
%mem=175gb
#p cam-b3lyp/Def2SVP td=(nstates=5)

TDDFT excited states in gaussian

0 1
Mg 0.00000 0.00000 0.00000
C -0.21700 -2.21800 2.80100
C -1.25500 2.44200 2.02600
C -0.24500 1.85000 -2.56400
C 0.14600 -2.82400 -2.03700
N -0.61700 -0.00900 2.12600
C -0.59400 -0.90800 3.10500
C -0.93600 -0.30900 4.50200
C -1.77300 0.96400 4.03200
C -1.15500 1.16800 2.66000
C -3.26300 0.68500 3.86300
C 0.34500 0.11000 5.29900
C 0.12400 0.39700 6.78700
H 1.16800 0.03300 7.73300
N -0.18500 1.96100 -0.15200
C -0.70300 2.80000 0.77700
C -0.62000 4.15600 0.19300
C -0.18700 4.01500 -1.22500
C -0.21400 2.58300 -1.38000
C -0.88700 5.40600 0.97400
C 0.18100 5.01300 -2.27700
O 0.30300 4.69000 -3.50800
C 0.31000 6.41400 -1.83700
N -0.26500 -0.41300 -2.02900
C -0.27900 0.56900 -2.93700
C -0.19600 0.02400 -4.33200
C 0.12400 -1.53300 -4.18000
C 0.08600 -1.63200 -2.63500
C -1.45100 0.20500 -5.19700
C 1.37300 -2.07000 -4.92300
C 2.62600 -1.49000 -4.30600
N 0.15000 -2.14400 0.30300
C 0.17300 -3.13600 -0.68800
C 0.17300 -4.43800 0.00400
C 0.13300 -4.11100 1.35800
C 0.08300 -2.69500 1.50200
C 0.14900 -5.71500 -0.62300
C 0.09600 -4.62900 2.71600
O 0.20800 -5.74700 3.22100
C -0.25500 -3.42800 3.70100
C 0.71700 -3.48200 4.84800
O 1.93100 -3.25500 4.66900
O 0.03800 -3.55600 6.00300
C 0.94300 -3.58300 7.18300
H -1.85900 3.22000 2.49700
H -0.21800 2.45300 -3.47400
H 0.27600 -3.74700 -2.60500
H -1.55400 -0.94900 5.13200
H -1.58500 1.83100 4.66500
H -3.48400 -0.37700 3.96900
H -3.51100 1.02700 2.85800
H -3.85200 1.30100 4.54300
H 0.66900 1.09600 4.96600
H 1.13000 -0.63900 5.18900
H -0.84400 0.02600 7.12500
H 0.06200 1.47700 6.92100
H -1.34400 5.18600 1.93800
H -1.65100 5.96300 0.43200
H 0.00700 6.02000 1.08400
H -0.63500 6.74400 -1.40500
H 0.66500 6.97000 -2.70400
H 1.04800 6.46600 -1.03600
H 0.60800 0.50100 -4.89100
H -0.69200 -2.15600 -4.54700
H -1.26700 0.74000 -6.12900
H -2.20400 0.71400 -4.59600
H -1.96700 -0.72000 -5.45300
H 1.35600 -1.75900 -5.96700
H 1.45200 -3.15700 -4.90200
H 2.71400 -0.52200 -4.79800
H 3.48700 -2.12100 -4.52900
H 2.49500 -1.30300 -3.24000
H 0.86700 -6.33300 -0.08400
H 0.40400 -5.64200 -1.68000
H -0.89100 -5.99900 -0.46300
H -1.28300 -3.58100 4.02800
H 0.69800 -4.47800 7.75500
H 0.83300 -2.61900 7.68000
H 2.00000 -3.75400 6.97600
Mg 31.54017 2.84366 2.40087
C 31.80739 0.66405 5.23935
C 30.73292 5.33933 4.58138
C 30.85823 4.67312 -0.10022
C 31.23966 -0.00540 0.41637
N 31.33026 2.87444 4.60252
C 31.51645 2.00126 5.58090
C 31.46254 2.61200 7.00696
C 30.56950 3.90618 6.68069
C 30.92085 4.07977 5.20452
C 29.07563 3.64944 6.78912
C 32.88289 3.01356 7.53930
C 32.94364 3.32769 9.03576
H 34.14539 2.95500 9.77696
N 31.37186 4.81609 2.26029
C 31.05971 5.67874 3.25009
C 31.04277 7.01290 2.63051
C 31.20837 6.84962 1.16060
C 31.13001 5.40718 1.04513
C 30.96048 8.28053 3.43037
C 31.39233 7.83024 0.04224
O 31.27675 7.48082 -1.18551
C 31.61935 9.23044 0.42877
N 30.89970 2.41156 0.47074
C 30.72874 3.38948 -0.43612
C 30.53429 2.82082 -1.82147
C 30.85274 1.25885 -1.69332
C 31.10028 1.17511 -0.17111
C 29.14405 3.00838 -2.42846
C 31.93024 0.67944 -2.65038
C 33.28839 1.24375 -2.30057
N 31.70645 0.71118 2.70574
C 31.51741 -0.30528 1.74389
C 31.62265 -1.59835 2.45052
C 31.84449 -1.24131 3.78910
C 31.85520 0.17445 3.91166
C 31.46697 -2.88412 1.86003
C 32.06145 -1.74013 5.12806
O 32.23710 -2.85289 5.62268
C 31.92104 -0.52880 6.14754
C 33.08922 -0.58023 7.09371
O 34.24689 -0.39397 6.67932
O 32.63072 -0.62382 8.35793
C 33.75233 -0.66474 9.33370
H 30.25063 6.13359 5.15184
H 30.72545 5.25695 -1.01400
H 31.25516 -0.94017 -0.14811
H 30.96684 1.99510 7.74688
H 30.89875 4.76827 7.25494
H 28.85725 2.60465 6.95304
H 28.65113 3.98202 5.85091
H 28.63831 4.28887 7.56127
H 33.15429 3.99521 7.13009
H 33.60711 2.25977 7.29861
H 32.04497 2.98825 9.56501
H 32.93585 4.41292 9.16313
H 30.68181 8.08122 4.47249
H 30.11973 8.85729 3.02993
H 31.86838 8.88328 3.35904
H 30.78095 9.58063 1.02620
H 31.81671 9.76271 -0.50376
H 32.50518 9.27658 1.07203
H 31.22989 3.26489 -2.52293
H 29.96511 0.64361 -1.90166
H 29.15982 3.53652 -3.40051
H 28.52955 3.54209 -1.71565
H 28.57842 2.09053 -2.57950
H 31.72428 0.98195 -3.68004
H 31.98185 -0.40415 -2.63728
H 33.29541 2.20819 -2.81719
H 34.07964 0.59340 -2.66801
H 33.36605 1.44495 -1.22580
H 32.25342 -3.50876 2.26229
H 31.51598 -2.83161 0.77439
H 30.46492 -3.14114 2.21374
H 30.96871 -0.64579 6.66615
H 33.59869 -1.54882 9.96019
H 33.74403 0.31889 9.83982
H 34.74723 -0.85043 8.94621

