%nproc=24
%mem=175gb
#p cam-b3lyp/Def2SVP td=(nstates=5)

TDDFT excited states in gaussian

0 1
Mg 0.00000 0.00000 0.00000
C -0.21700 -2.21800 2.80100
C -1.25500 2.44200 2.02600
C -0.24500 1.85000 -2.56400
C 0.14600 -2.82400 -2.03700
N -0.61700 -0.00900 2.12600
C -0.59400 -0.90800 3.10500
C -0.93600 -0.30900 4.50200
C -1.77300 0.96400 4.03200
C -1.15500 1.16800 2.66000
C -3.26300 0.68500 3.86300
C 0.34500 0.11000 5.29900
C 0.12400 0.39700 6.78700
H 1.16800 0.03300 7.73300
N -0.18500 1.96100 -0.15200
C -0.70300 2.80000 0.77700
C -0.62000 4.15600 0.19300
C -0.18700 4.01500 -1.22500
C -0.21400 2.58300 -1.38000
C -0.88700 5.40600 0.97400
C 0.18100 5.01300 -2.27700
O 0.30300 4.69000 -3.50800
C 0.31000 6.41400 -1.83700
N -0.26500 -0.41300 -2.02900
C -0.27900 0.56900 -2.93700
C -0.19600 0.02400 -4.33200
C 0.12400 -1.53300 -4.18000
C 0.08600 -1.63200 -2.63500
C -1.45100 0.20500 -5.19700
C 1.37300 -2.07000 -4.92300
C 2.62600 -1.49000 -4.30600
N 0.15000 -2.14400 0.30300
C 0.17300 -3.13600 -0.68800
C 0.17300 -4.43800 0.00400
C 0.13300 -4.11100 1.35800
C 0.08300 -2.69500 1.50200
C 0.14900 -5.71500 -0.62300
C 0.09600 -4.62900 2.71600
O 0.20800 -5.74700 3.22100
C -0.25500 -3.42800 3.70100
C 0.71700 -3.48200 4.84800
O 1.93100 -3.25500 4.66900
O 0.03800 -3.55600 6.00300
C 0.94300 -3.58300 7.18300
H -1.85900 3.22000 2.49700
H -0.21800 2.45300 -3.47400
H 0.27600 -3.74700 -2.60500
H -1.55400 -0.94900 5.13200
H -1.58500 1.83100 4.66500
H -3.48400 -0.37700 3.96900
H -3.51100 1.02700 2.85800
H -3.85200 1.30100 4.54300
H 0.66900 1.09600 4.96600
H 1.13000 -0.63900 5.18900
H -0.84400 0.02600 7.12500
H 0.06200 1.47700 6.92100
H -1.34400 5.18600 1.93800
H -1.65100 5.96300 0.43200
H 0.00700 6.02000 1.08400
H -0.63500 6.74400 -1.40500
H 0.66500 6.97000 -2.70400
H 1.04800 6.46600 -1.03600
H 0.60800 0.50100 -4.89100
H -0.69200 -2.15600 -4.54700
H -1.26700 0.74000 -6.12900
H -2.20400 0.71400 -4.59600
H -1.96700 -0.72000 -5.45300
H 1.35600 -1.75900 -5.96700
H 1.45200 -3.15700 -4.90200
H 2.71400 -0.52200 -4.79800
H 3.48700 -2.12100 -4.52900
H 2.49500 -1.30300 -3.24000
H 0.86700 -6.33300 -0.08400
H 0.40400 -5.64200 -1.68000
H -0.89100 -5.99900 -0.46300
H -1.28300 -3.58100 4.02800
H 0.69800 -4.47800 7.75500
H 0.83300 -2.61900 7.68000
H 2.00000 -3.75400 6.97600
Mg 7.88098 0.71203 0.58872
C 9.74887 -1.83964 -1.10805
C 9.78136 3.00222 -1.07806
C 6.56882 2.96737 2.39401
C 6.94956 -1.71080 2.91425
N 9.52136 0.48722 -0.87786
C 10.10426 -0.53029 -1.49369
C 11.06724 -0.12175 -2.64057
C 11.41589 1.36500 -2.14368
C 10.14855 1.65880 -1.34355
C 12.60257 1.42003 -1.19601
C 10.35806 -0.10812 -4.04017
C 11.30422 -0.02056 -5.23970
H 10.94820 -0.73788 -6.46083
N 7.77817 2.67541 0.31831
C 8.61895 3.44199 -0.40744
C 8.12372 4.82070 -0.27302
C 7.01936 4.82727 0.72451
C 7.09481 3.46403 1.21028
C 8.64046 5.95599 -1.10820
C 6.06303 5.88892 1.17675
O 5.34110 5.74236 2.22564
C 6.06453 7.14278 0.40908
N 7.07492 0.69276 2.50503
C 6.52222 1.79863 3.03369
C 5.76622 1.47817 4.30104
C 5.72313 -0.11836 4.38355
C 6.57611 -0.45904 3.14188
C 6.36363 2.03828 5.59169
C 4.32396 -0.77836 4.52287
C 3.52619 -0.56920 3.25591
N 8.10700 -1.42811 0.78047
C 7.66315 -2.24057 1.84677
C 8.14969 -3.61016 1.58232
C 8.86805 -3.49392 0.38276
C 8.84881 -2.14305 -0.05801
C 7.95034 -4.74077 2.42380
C 9.64723 -4.20479 -0.60530
O 9.92677 -5.38610 -0.80557
C 10.35884 -3.14145 -1.54833
C 10.14462 -3.56866 -2.97456
O 9.00252 -3.57869 -3.46660
O 11.33866 -3.68504 -3.58375
C 11.17793 -4.09618 -5.00394
H 10.46808 3.79588 -1.37371
H 6.00966 3.68477 2.99912
H 6.61880 -2.54180 3.54092
H 11.97229 -0.71363 -2.70631
H 11.50509 2.05092 -2.98209
H 12.94319 0.43338 -0.91918
H 12.25769 1.95978 -0.32378
H 13.40294 2.02689 -1.62899
H 9.81691 0.83950 -4.15816
H 9.71404 -0.95898 -4.14928
H 12.34411 -0.22952 -4.96056
H 11.32381 1.01381 -5.59144
H 9.56274 5.68083 -1.63459
H 8.94835 6.74754 -0.41645
H 7.88585 6.35550 -1.78910
H 7.06037 7.57897 0.43185
H 5.25385 7.74252 0.82739
H 5.84625 6.91131 -0.63944
H 4.75198 1.85503 4.25211
H 6.27463 -0.49625 5.25698
H 5.65976 2.67806 6.15676
H 7.26094 2.58865 5.34174
H 6.73771 1.29122 6.28966
H 3.75888 -0.30182 5.32769
H 4.36708 -1.83956 4.74422
H 3.10759 0.43268 3.39044
H 2.74042 -1.31702 3.17014
H 4.18239 -0.53717 2.37840
H 7.68671 -5.56733 1.77743
H 7.17694 -4.55282 3.16563
H 8.94192 -4.82411 2.87666
H 11.41609 -3.12231 -1.28110
H 11.77306 -5.00401 -5.14305
H 11.46070 -3.21151 -5.60490
H 10.19822 -4.43507 -5.31981

