%nproc=24
%mem=175gb
#p cam-b3lyp/Def2SVP td=(nstates=5)

TDDFT excited states in gaussian

0 1
Mg 0.00000 0.00000 0.00000
C -0.21700 -2.21800 2.80100
C -1.25500 2.44200 2.02600
C -0.24500 1.85000 -2.56400
C 0.14600 -2.82400 -2.03700
N -0.61700 -0.00900 2.12600
C -0.59400 -0.90800 3.10500
C -0.93600 -0.30900 4.50200
C -1.77300 0.96400 4.03200
C -1.15500 1.16800 2.66000
C -3.26300 0.68500 3.86300
C 0.34500 0.11000 5.29900
C 0.12400 0.39700 6.78700
H 1.16800 0.03300 7.73300
N -0.18500 1.96100 -0.15200
C -0.70300 2.80000 0.77700
C -0.62000 4.15600 0.19300
C -0.18700 4.01500 -1.22500
C -0.21400 2.58300 -1.38000
C -0.88700 5.40600 0.97400
C 0.18100 5.01300 -2.27700
O 0.30300 4.69000 -3.50800
C 0.31000 6.41400 -1.83700
N -0.26500 -0.41300 -2.02900
C -0.27900 0.56900 -2.93700
C -0.19600 0.02400 -4.33200
C 0.12400 -1.53300 -4.18000
C 0.08600 -1.63200 -2.63500
C -1.45100 0.20500 -5.19700
C 1.37300 -2.07000 -4.92300
C 2.62600 -1.49000 -4.30600
N 0.15000 -2.14400 0.30300
C 0.17300 -3.13600 -0.68800
C 0.17300 -4.43800 0.00400
C 0.13300 -4.11100 1.35800
C 0.08300 -2.69500 1.50200
C 0.14900 -5.71500 -0.62300
C 0.09600 -4.62900 2.71600
O 0.20800 -5.74700 3.22100
C -0.25500 -3.42800 3.70100
C 0.71700 -3.48200 4.84800
O 1.93100 -3.25500 4.66900
O 0.03800 -3.55600 6.00300
C 0.94300 -3.58300 7.18300
H -1.85900 3.22000 2.49700
H -0.21800 2.45300 -3.47400
H 0.27600 -3.74700 -2.60500
H -1.55400 -0.94900 5.13200
H -1.58500 1.83100 4.66500
H -3.48400 -0.37700 3.96900
H -3.51100 1.02700 2.85800
H -3.85200 1.30100 4.54300
H 0.66900 1.09600 4.96600
H 1.13000 -0.63900 5.18900
H -0.84400 0.02600 7.12500
H 0.06200 1.47700 6.92100
H -1.34400 5.18600 1.93800
H -1.65100 5.96300 0.43200
H 0.00700 6.02000 1.08400
H -0.63500 6.74400 -1.40500
H 0.66500 6.97000 -2.70400
H 1.04800 6.46600 -1.03600
H 0.60800 0.50100 -4.89100
H -0.69200 -2.15600 -4.54700
H -1.26700 0.74000 -6.12900
H -2.20400 0.71400 -4.59600
H -1.96700 -0.72000 -5.45300
H 1.35600 -1.75900 -5.96700
H 1.45200 -3.15700 -4.90200
H 2.71400 -0.52200 -4.79800
H 3.48700 -2.12100 -4.52900
H 2.49500 -1.30300 -3.24000
H 0.86700 -6.33300 -0.08400
H 0.40400 -5.64200 -1.68000
H -0.89100 -5.99900 -0.46300
H -1.28300 -3.58100 4.02800
H 0.69800 -4.47800 7.75500
H 0.83300 -2.61900 7.68000
H 2.00000 -3.75400 6.97600
Mg 7.89067 0.71287 0.59208
C 7.36240 4.26249 0.60692
C 7.25571 0.78284 -2.75853
C 7.90492 -2.45986 0.62384
C 7.35584 0.75878 4.03556
N 7.38710 2.36954 -0.78419
C 7.27450 3.68489 -0.67686
C 7.13542 4.43114 -2.03087
C 6.54595 3.22428 -2.91114
C 7.12387 2.04645 -2.12924
C 5.02990 3.13036 -2.86505
C 8.51745 4.92518 -2.58578
C 8.42644 5.92481 -3.74087
H 9.42624 6.98597 -3.82341
N 8.10416 -0.58538 -0.89370
C 7.81976 -0.38396 -2.19747
C 8.13112 -1.65073 -2.87755
C 8.46620 -2.66788 -1.84418
C 8.14416 -1.93338 -0.63716
C 8.17030 -1.78361 -4.37228
C 8.97807 -4.07395 -1.92881
O 8.97210 -4.85501 -0.91258
C 9.39965 -4.53924 -3.25820
N 7.45589 -0.68435 2.06893
C 7.59242 -2.00157 1.83613
C 7.49170 -2.79519 3.11692
C 7.50058 -1.71323 4.29457
C 7.51567 -0.42015 3.45011
C 6.25621 -3.68484 3.25284
C 8.57700 -1.88608 5.40098
C 9.95327 -1.64339 4.82449
N 7.62341 2.23251 2.10447
C 7.38807 2.03250 3.48240
C 7.15809 3.36274 4.08238
C 7.25355 4.24935 2.99919
C 7.50390 3.52108 1.80485
C 6.85494 3.61751 5.44961
C 7.18891 5.63476 2.59282
O 7.08954 6.70953 3.18335
C 7.13088 5.69362 1.00550
C 8.12792 6.72008 0.54200
O 9.34619 6.54207 0.71728
O 7.49860 7.63280 -0.22040
C 8.44810 8.66602 -0.71307
H 6.85130 0.65901 -3.76351
H 8.00808 -3.54406 0.70947
H 7.27946 0.86664 5.11963
H 6.43843 5.26055 -2.02293
H 6.94344 3.24230 -3.92259
H 4.60501 3.82032 -2.15121
H 4.80683 2.10956 -2.58352
H 4.61326 3.26444 -3.86743
H 9.01646 4.09202 -3.09722
H 9.11910 5.33634 -1.79864
H 7.41662 6.33897 -3.84897
H 8.59814 5.38916 -4.67768
H 7.71855 -0.91403 -4.86540
H 7.51182 -2.61816 -4.63648
H 9.17347 -1.99154 -4.75052
H 8.56422 -4.46109 -3.94987
H 9.81748 -5.53540 -3.10021
H 10.18144 -3.86859 -3.63191
H 8.34662 -3.44968 3.23457
H 6.55358 -1.71215 4.85405
H 6.50196 -4.74941 3.42706
H 5.65610 -3.57439 2.35942
H 5.55987 -3.39151 4.03660
H 8.57390 -2.91275 5.77527
H 8.42880 -1.23197 6.25373
H 10.20662 -2.60860 4.37587
H 10.65650 -1.37693 5.61094
H 9.91661 -0.90372 4.01628
H 7.45162 4.46949 5.74729
H 7.06248 2.74911 6.07137
H 5.78374 3.82363 5.37675
H 6.11067 5.95782 0.72455
H 8.05137 9.63795 -0.40382
H 8.54844 8.48560 -1.79987
H 9.43669 8.69035 -0.26973

