%nproc=24
%mem=175gb
#p cam-b3lyp/Def2SVP td=(nstates=5)

TDDFT excited states in gaussian

0 1
Mg 8.92564 0.80384 0.68488
C 9.70342 3.32548 3.11705
C 8.80630 -1.43063 3.25927
C 8.68571 -1.51373 -1.46889
C 10.21157 2.94686 -1.74402
N 9.23229 1.03802 2.86281
C 9.46219 2.05485 3.67985
C 9.35244 1.70540 5.18830
C 9.64206 0.12881 5.09159
C 9.16669 -0.11977 3.66159
C 11.11958 -0.21763 5.17077
C 7.92197 1.99228 5.76577
C 7.82815 1.96760 7.29297
H 6.91563 2.89974 7.94940
N 8.29366 -1.06758 0.87708
C 8.29632 -1.81608 2.00003
C 7.74989 -3.12564 1.61195
C 7.57814 -3.14288 0.13380
C 8.21252 -1.88888 -0.21992
C 7.37106 -4.17828 2.61289
C 6.95835 -4.13122 -0.80707
O 7.13179 -4.05432 -2.07468
C 6.21985 -5.24525 -0.19466
N 9.57278 0.63595 -1.28372
C 9.29169 -0.45820 -2.01292
C 9.61493 -0.23938 -3.47169
C 9.94655 1.31905 -3.60918
C 9.83989 1.73238 -2.12487
C 10.78106 -1.05830 -4.02477
C 9.13213 2.12182 -4.66035
C 7.68401 2.20819 -4.23506
N 9.63206 2.84487 0.62797
C 10.15133 3.53697 -0.48802
C 10.60555 4.85826 -0.00814
C 10.33801 4.83423 1.36893
C 9.77660 3.57848 1.72587
C 11.22179 5.86530 -0.80328
C 10.41268 5.58166 2.60362
O 10.71903 6.73481 2.90385
C 10.12195 4.59121 3.81230
C 9.12521 5.25187 4.72475
O 7.96629 5.47995 4.33554
O 9.63541 5.30699 5.96854
C 8.67893 5.94424 6.91241
H 8.96792 -2.25099 3.95911
H 8.52470 -2.23767 -2.27105
H 10.53381 3.70906 -2.45668
H 10.09290 2.18141 5.81990
H 9.03289 -0.42877 5.79826
H 11.74150 0.66512 5.16027
H 11.32383 -0.83465 4.30555
H 11.31261 -0.84849 6.04317
H 7.26228 1.14920 5.52336
H 7.54143 2.92428 5.39537
H 8.81659 1.99921 7.76723
H 7.41440 1.00389 7.59969
H 7.76503 -3.94564 3.60991
H 7.89155 -5.09742 2.32282
H 6.29653 -4.37223 2.63394
H 6.88481 -5.80206 0.46128
H 5.77535 -5.79395 -1.02726
H 5.42616 -4.83286 0.43828
H 8.76156 -0.47351 -4.09623
H 10.99138 1.48846 -3.90826
H 10.50244 -1.68185 -4.89520
H 11.17489 -1.67357 -3.22673
H 11.65328 -0.47811 -4.32111
H 9.14259 1.60471 -5.62297
H 9.51311 3.12356 -4.82875
H 7.26739 1.25842 -4.58357
H 7.19391 3.05353 -4.71384
H 7.59505 2.22608 -3.14262
H 10.77009 6.80635 -0.51886
H 11.09385 5.66694 -1.86538
H 12.26244 5.75367 -0.48729
H 11.07122 4.39876 4.31372
H 9.20460 6.78020 7.38413
H 8.32745 5.13159 7.57561
H 7.81758 6.44774 6.48932

