%nproc=24
%mem=175gb
#p cam-b3lyp/Def2SVP td=(nstates=5)

TDDFT excited states in gaussian

0 1
Mg 7.88624 0.71456 0.60772
C 6.75216 -1.61923 3.08691
C 5.86163 3.03224 2.07875
C 8.51602 2.65931 -1.81895
C 8.89857 -2.01910 -1.30224
N 6.53113 0.60121 2.35217
C 6.22827 -0.32036 3.25401
C 5.37706 0.19910 4.44362
C 4.70586 1.46769 3.72317
C 5.77783 1.74717 2.67177
C 3.40817 1.13541 3.00560
C 6.26010 0.63327 5.66581
C 5.48925 0.85806 6.96851
H 6.13239 0.49734 8.22895
N 7.67739 2.68189 0.45096
C 6.82357 3.46707 1.14071
C 7.04410 4.83429 0.64448
C 7.98055 4.76884 -0.51029
C 8.08020 3.33405 -0.68787
C 6.45615 6.04557 1.30822
C 8.66223 5.82335 -1.32854
O 9.24590 5.54443 -2.43505
C 8.54604 7.20643 -0.84370
N 8.40896 0.37156 -1.37506
C 8.67891 1.39391 -2.20564
C 9.29614 0.90233 -3.49318
C 9.60850 -0.64799 -3.25542
C 9.00990 -0.81276 -1.84123
C 8.43587 1.06149 -4.74657
C 11.06907 -1.11707 -3.49908
C 11.98550 -0.51239 -2.45989
N 8.01715 -1.42245 0.89769
C 8.44499 -2.38609 -0.04170
C 8.24937 -3.71352 0.57643
C 7.69544 -3.42880 1.83365
C 7.53694 -2.02420 1.98017
C 8.52634 -4.96674 -0.03905
C 7.19889 -3.99768 3.06593
O 7.16283 -5.12912 3.54788
C 6.44873 -2.85863 3.88216
C 6.93095 -2.91311 5.30589
O 8.11398 -2.64813 5.58308
O 5.87258 -3.05505 6.12446
C 6.29901 -3.10303 7.54843
H 5.09342 3.76687 2.32175
H 8.85022 3.29095 -2.64528
H 9.28054 -2.91597 -1.79459
H 4.60875 -0.48422 4.78499
H 4.61430 2.30758 4.40696
H 3.21198 0.07352 2.99891
H 3.52783 1.50441 1.99537
H 2.58127 1.70547 3.43871
H 6.63653 1.64964 5.49248
H 7.05301 -0.06983 5.83185
H 4.47405 0.44542 6.92319
H 5.33642 1.93196 7.10041
H 5.67911 5.77030 2.03199
H 5.92032 6.60581 0.53435
H 7.21552 6.69324 1.75155
H 7.49549 7.48005 -0.78093
H 9.17205 7.80320 -1.50992
H 8.94523 7.25454 0.17559
H 10.22474 1.42031 -3.69935
H 9.01649 -1.29012 -3.92402
H 8.93035 1.64808 -5.54374
H 7.49905 1.52149 -4.46143
H 8.10629 0.12917 -5.20194
H 11.42382 -0.76227 -4.46987
H 11.18365 -2.19584 -3.48897
H 12.19787 0.48103 -2.86622
H 12.89512 -1.10150 -2.36199
H 11.46228 -0.37369 -1.50665
H 9.01891 -5.57738 0.70593
H 9.14377 -4.84591 -0.92672
H 7.51191 -5.29133 -0.28571
H 5.37799 -3.05133 3.80494
H 5.89867 -4.02987 7.97078
H 5.95077 -2.15355 7.99672
H 7.35738 -3.21813 7.75106

