%nproc=24
%mem=175gb
#p cam-b3lyp/Def2SVP td=(nstates=5)

TDDFT excited states in gaussian

0 1
Mg 0.00000 0.00000 0.00000
C -0.21700 -2.21800 2.80100
C -1.25500 2.44200 2.02600
C -0.24500 1.85000 -2.56400
C 0.14600 -2.82400 -2.03700
N -0.61700 -0.00900 2.12600
C -0.59400 -0.90800 3.10500
C -0.93600 -0.30900 4.50200
C -1.77300 0.96400 4.03200
C -1.15500 1.16800 2.66000
C -3.26300 0.68500 3.86300
C 0.34500 0.11000 5.29900
C 0.12400 0.39700 6.78700
H 1.16800 0.03300 7.73300
N -0.18500 1.96100 -0.15200
C -0.70300 2.80000 0.77700
C -0.62000 4.15600 0.19300
C -0.18700 4.01500 -1.22500
C -0.21400 2.58300 -1.38000
C -0.88700 5.40600 0.97400
C 0.18100 5.01300 -2.27700
O 0.30300 4.69000 -3.50800
C 0.31000 6.41400 -1.83700
N -0.26500 -0.41300 -2.02900
C -0.27900 0.56900 -2.93700
C -0.19600 0.02400 -4.33200
C 0.12400 -1.53300 -4.18000
C 0.08600 -1.63200 -2.63500
C -1.45100 0.20500 -5.19700
C 1.37300 -2.07000 -4.92300
C 2.62600 -1.49000 -4.30600
N 0.15000 -2.14400 0.30300
C 0.17300 -3.13600 -0.68800
C 0.17300 -4.43800 0.00400
C 0.13300 -4.11100 1.35800
C 0.08300 -2.69500 1.50200
C 0.14900 -5.71500 -0.62300
C 0.09600 -4.62900 2.71600
O 0.20800 -5.74700 3.22100
C -0.25500 -3.42800 3.70100
C 0.71700 -3.48200 4.84800
O 1.93100 -3.25500 4.66900
O 0.03800 -3.55600 6.00300
C 0.94300 -3.58300 7.18300
H -1.85900 3.22000 2.49700
H -0.21800 2.45300 -3.47400
H 0.27600 -3.74700 -2.60500
H -1.55400 -0.94900 5.13200
H -1.58500 1.83100 4.66500
H -3.48400 -0.37700 3.96900
H -3.51100 1.02700 2.85800
H -3.85200 1.30100 4.54300
H 0.66900 1.09600 4.96600
H 1.13000 -0.63900 5.18900
H -0.84400 0.02600 7.12500
H 0.06200 1.47700 6.92100
H -1.34400 5.18600 1.93800
H -1.65100 5.96300 0.43200
H 0.00700 6.02000 1.08400
H -0.63500 6.74400 -1.40500
H 0.66500 6.97000 -2.70400
H 1.04800 6.46600 -1.03600
H 0.60800 0.50100 -4.89100
H -0.69200 -2.15600 -4.54700
H -1.26700 0.74000 -6.12900
H -2.20400 0.71400 -4.59600
H -1.96700 -0.72000 -5.45300
H 1.35600 -1.75900 -5.96700
H 1.45200 -3.15700 -4.90200
H 2.71400 -0.52200 -4.79800
H 3.48700 -2.12100 -4.52900
H 2.49500 -1.30300 -3.24000
H 0.86700 -6.33300 -0.08400
H 0.40400 -5.64200 -1.68000
H -0.89100 -5.99900 -0.46300
H -1.28300 -3.58100 4.02800
H 0.69800 -4.47800 7.75500
H 0.83300 -2.61900 7.68000
H 2.00000 -3.75400 6.97600
Mg 15.77233 1.42474 1.20454
C 15.70849 -0.79193 4.02613
C 14.37656 3.79358 3.22321
C 15.39878 3.25053 -1.36342
C 16.07726 -1.39177 -0.82524
N 15.16766 1.38624 3.33178
C 15.24822 0.50846 4.32039
C 14.88676 1.07890 5.71806
C 13.96032 2.30274 5.24604
C 14.55562 2.53935 3.85957
C 12.49865 1.92174 5.07958
C 16.14871 1.58303 6.50251
C 15.91215 1.86570 7.98774
H 16.98809 1.57553 8.93147
N 15.46503 3.37946 1.05222
C 14.90762 4.18998 1.97614
C 14.88915 5.53250 1.37492
C 15.32992 5.41807 -0.04189
C 15.39653 3.97720 -0.18169
C 14.55677 6.76987 2.15713
C 15.62818 6.43660 -1.10012
O 15.76564 6.10793 -2.33135
C 15.66205 7.84119 -0.66717
N 15.52887 0.98717 -0.81328
C 15.44146 1.96887 -1.72791
C 15.54863 1.41901 -3.13025
C 15.97041 -0.11414 -2.95950
C 15.94609 -0.21316 -1.41840
C 14.27954 1.50608 -3.97773
C 17.24788 -0.58040 -3.71006
C 18.46791 0.08508 -3.11504
N 16.06167 -0.69349 1.51671
C 16.13596 -1.69907 0.52809
C 16.22181 -2.99544 1.23128
C 16.16788 -2.65307 2.59083
C 16.03597 -1.24450 2.72510
C 16.28483 -4.27536 0.61164
C 16.18185 -3.16384 3.94272
O 16.35954 -4.26979 4.45169
C 15.75777 -1.99251 4.92990
C 16.73661 -1.97018 6.07178
O 17.92987 -1.67980 5.87579
O 16.06340 -2.08107 7.23146
C 16.99038 -2.05279 8.39410
H 13.73372 4.53189 3.70334
H 15.38353 3.84288 -2.28122
H 16.27353 -2.30854 -1.38532
H 14.32021 0.40611 6.35064
H 14.10633 3.17516 5.87765
H 12.34394 0.85898 5.19246
H 12.22328 2.24039 4.08275
H 11.87673 2.50473 5.76492
H 16.40490 2.59302 6.15751
H 16.96584 0.89712 6.39088
H 14.96504 1.44124 8.34236
H 15.78933 2.94332 8.12062
H 14.11301 6.52383 3.12973
H 13.75590 7.28495 1.61567
H 15.40810 7.44663 2.25667
H 14.70312 8.10719 -0.22881
H 15.97809 8.40972 -1.54396
H 16.41043 7.94471 0.12645
H 16.31884 1.93510 -3.69019
H 15.19034 -0.79508 -3.33050
H 14.42510 2.05651 -4.92637
H 13.50366 1.97058 -3.38377
H 13.83045 0.54871 -4.23650
H 17.20569 -0.27161 -4.75745
H 17.38820 -1.65610 -3.69685
H 18.48581 1.05876 -3.61376
H 19.36475 -0.48927 -3.33828
H 18.33343 0.26657 -2.04237
H 17.03622 -4.84265 1.14464
H 16.52383 -4.19342 -0.44663
H 15.26101 -4.62205 0.77559
H 14.74109 -2.19948 5.26619
H 16.80218 -2.96103 8.97493
H 16.80753 -1.08538 8.89850
H 18.05091 -2.14699 8.19195

