%nproc=24
%mem=175gb
#p cam-b3lyp/Def2SVP td=(nstates=5)

TDDFT excited states in gaussian

0 1
Mg 0.00000 0.00000 0.00000
C -0.21700 -2.21800 2.80100
C -1.25500 2.44200 2.02600
C -0.24500 1.85000 -2.56400
C 0.14600 -2.82400 -2.03700
N -0.61700 -0.00900 2.12600
C -0.59400 -0.90800 3.10500
C -0.93600 -0.30900 4.50200
C -1.77300 0.96400 4.03200
C -1.15500 1.16800 2.66000
C -3.26300 0.68500 3.86300
C 0.34500 0.11000 5.29900
C 0.12400 0.39700 6.78700
H 1.16800 0.03300 7.73300
N -0.18500 1.96100 -0.15200
C -0.70300 2.80000 0.77700
C -0.62000 4.15600 0.19300
C -0.18700 4.01500 -1.22500
C -0.21400 2.58300 -1.38000
C -0.88700 5.40600 0.97400
C 0.18100 5.01300 -2.27700
O 0.30300 4.69000 -3.50800
C 0.31000 6.41400 -1.83700
N -0.26500 -0.41300 -2.02900
C -0.27900 0.56900 -2.93700
C -0.19600 0.02400 -4.33200
C 0.12400 -1.53300 -4.18000
C 0.08600 -1.63200 -2.63500
C -1.45100 0.20500 -5.19700
C 1.37300 -2.07000 -4.92300
C 2.62600 -1.49000 -4.30600
N 0.15000 -2.14400 0.30300
C 0.17300 -3.13600 -0.68800
C 0.17300 -4.43800 0.00400
C 0.13300 -4.11100 1.35800
C 0.08300 -2.69500 1.50200
C 0.14900 -5.71500 -0.62300
C 0.09600 -4.62900 2.71600
O 0.20800 -5.74700 3.22100
C -0.25500 -3.42800 3.70100
C 0.71700 -3.48200 4.84800
O 1.93100 -3.25500 4.66900
O 0.03800 -3.55600 6.00300
C 0.94300 -3.58300 7.18300
H -1.85900 3.22000 2.49700
H -0.21800 2.45300 -3.47400
H 0.27600 -3.74700 -2.60500
H -1.55400 -0.94900 5.13200
H -1.58500 1.83100 4.66500
H -3.48400 -0.37700 3.96900
H -3.51100 1.02700 2.85800
H -3.85200 1.30100 4.54300
H 0.66900 1.09600 4.96600
H 1.13000 -0.63900 5.18900
H -0.84400 0.02600 7.12500
H 0.06200 1.47700 6.92100
H -1.34400 5.18600 1.93800
H -1.65100 5.96300 0.43200
H 0.00700 6.02000 1.08400
H -0.63500 6.74400 -1.40500
H 0.66500 6.97000 -2.70400
H 1.04800 6.46600 -1.03600
H 0.60800 0.50100 -4.89100
H -0.69200 -2.15600 -4.54700
H -1.26700 0.74000 -6.12900
H -2.20400 0.71400 -4.59600
H -1.96700 -0.72000 -5.45300
H 1.35600 -1.75900 -5.96700
H 1.45200 -3.15700 -4.90200
H 2.71400 -0.52200 -4.79800
H 3.48700 -2.12100 -4.52900
H 2.49500 -1.30300 -3.24000
H 0.86700 -6.33300 -0.08400
H 0.40400 -5.64200 -1.68000
H -0.89100 -5.99900 -0.46300
H -1.28300 -3.58100 4.02800
H 0.69800 -4.47800 7.75500
H 0.83300 -2.61900 7.68000
H 2.00000 -3.75400 6.97600
Mg 10.50657 0.95051 0.80716
C 8.22346 -1.64495 1.77154
C 7.80870 3.02139 0.54728
C 12.42611 3.12737 -0.47505
C 12.80971 -1.55085 0.04267
N 8.34620 0.61529 1.14285
C 7.60236 -0.39521 1.56704
C 6.12359 -0.02620 1.86133
C 6.00316 1.26171 0.90967
C 7.46975 1.68752 0.88789
C 5.58297 0.92311 -0.51094
C 5.88922 0.34820 3.36696
C 4.42056 0.41865 3.79102
H 4.06391 -0.01392 5.13941
N 10.26922 2.90998 0.60053
C 9.10303 3.58612 0.53643
C 9.46720 5.00074 0.36214
C 10.93965 5.08500 0.16334
C 11.27338 3.67817 0.06567
C 8.46991 6.11727 0.47251
C 11.88837 6.24090 0.06325
O 13.09289 6.08971 -0.34798
C 11.33840 7.56902 0.37164
N 12.27004 0.80751 -0.28465
C 12.93158 1.91039 -0.67702
C 14.30458 1.56497 -1.20232
C 14.52103 0.01897 -0.85504
C 13.13954 -0.29846 -0.24177
C 14.51863 1.78476 -2.69974
C 15.79263 -0.34842 -0.04220
C 15.69046 0.21310 1.35767
N 10.61325 -1.19340 1.05280
C 11.65789 -2.04849 0.63853
C 11.22486 -3.43266 0.91958
C 9.93870 -3.28704 1.46094
C 9.58638 -1.91074 1.49488
C 11.96776 -4.61176 0.62985
C 8.79471 -3.98542 2.00157
O 8.55103 -5.15435 2.29812
C 7.58293 -2.96254 2.10966
C 6.96832 -3.11308 3.47425
O 7.61190 -2.80979 4.49427
O 5.65673 -3.38134 3.33962
C 5.00084 -3.52843 4.66627
H 7.01388 3.69017 0.21581
H 13.16963 3.84462 -0.83030
H 13.51003 -2.38035 -0.07631
H 5.40050 -0.77653 1.56481
H 5.38872 2.03368 1.36562
H 5.54914 -0.14327 -0.67773
H 6.32180 1.38336 -1.15385
H 4.63217 1.40870 -0.74869
H 6.18091 1.39442 3.52535
H 6.42024 -0.32301 4.01358
H 3.75526 -0.04244 3.05093
H 4.11470 1.46752 3.80970
H 7.44007 5.73961 0.45854
H 8.55344 6.71233 -0.44335
H 8.65546 6.76430 1.33251
H 10.50664 7.77948 -0.29644
H 12.18799 8.25350 0.33211
H 10.92900 7.55080 1.38785
H 15.06804 2.14781 -0.70179
H 14.60981 -0.59423 -1.76386
H 15.36298 2.46330 -2.92498
H 13.59966 2.16766 -3.12332
H 14.68096 0.87864 -3.28093
H 16.67656 0.10692 -0.49551
H 15.97449 -1.41638 0.01599
H 16.02407 1.24769 1.23351
H 16.34141 -0.33259 2.03777
H 14.64794 0.24119 1.69533
H 11.87746 -5.25678 1.49373
H 13.00856 -4.38222 0.41118
H 11.43155 -4.96792 -0.25382
H 6.87753 -3.20506 1.31394
H 4.51342 -4.50824 4.67482
H 4.34985 -2.64099 4.77772
H 5.64197 -3.60355 5.53677

