%nproc=24
%mem=175gb
#p cam-b3lyp/Def2SVP td=(nstates=5)

TDDFT excited states in gaussian

0 1
Mg 15.77053 1.42430 1.20604
C 14.92567 -0.86944 3.83359
C 13.97741 3.78485 2.89339
C 16.11656 3.33689 -1.30188
C 16.49887 -1.34155 -0.78526
N 14.64365 1.34700 3.10773
C 14.44416 0.43841 4.05060
C 13.75591 0.98131 5.33167
C 13.01649 2.25273 4.68699
C 13.95167 2.50674 3.50648
C 11.63473 1.93266 4.14146
C 14.79101 1.41402 6.42865
C 14.19276 1.66217 7.81511
H 14.98415 1.30394 8.98893
N 15.56977 3.39291 1.05485
C 14.81972 4.19684 1.83740
C 14.99435 5.55601 1.30229
C 15.77754 5.46614 0.04005
C 15.83509 4.02845 -0.13267
C 14.51044 6.78186 2.02099
C 16.36508 6.50291 -0.86885
O 16.80155 6.20519 -2.03662
C 16.32899 7.89202 -0.38867
N 16.03573 1.05518 -0.82269
C 16.21285 2.06568 -1.69186
C 16.65707 1.55315 -3.04107
C 16.97622 0.00075 -2.82712
C 16.55767 -0.14205 -1.34732
C 15.64851 1.71307 -4.17844
C 18.38832 -0.49178 -3.24670
C 19.43584 0.10920 -2.33735
N 15.90846 -0.71159 1.50104
C 16.20222 -1.69009 0.52619
C 16.06814 -3.00869 1.17868
C 15.68016 -2.70419 2.49217
C 15.55994 -1.29612 2.64179
C 16.24905 -4.27152 0.54730
C 15.33467 -3.25423 3.78321
O 15.34437 -4.38046 4.27842
C 14.70802 -2.09680 4.67432
C 15.36433 -2.14497 6.02690
O 16.57620 -1.89464 6.15067
O 14.41525 -2.26383 6.97320
C 15.01632 -2.30467 8.33293
H 13.25557 4.53282 3.22259
H 16.35277 3.95584 -2.17055
H 16.80411 -2.24845 -1.31160
H 13.02752 0.31247 5.77422
H 13.02260 3.10023 5.36749
H 11.42519 0.87372 4.17121
H 11.63155 2.29041 3.12016
H 10.87634 2.51871 4.66844
H 15.15616 2.42313 6.19822
H 15.58909 0.70104 6.50179
H 13.17452 1.26394 7.90198
H 14.07194 2.73937 7.95319
H 13.82679 6.52472 2.83946
H 13.88922 7.34258 1.31421
H 15.32796 7.42254 2.35843
H 15.29834 8.18146 -0.19776
H 16.87431 8.47336 -1.13469
H 16.85353 7.94386 0.57195
H 17.55924 2.05562 -3.36774
H 16.29653 -0.63894 -3.40907
H 16.04678 2.28492 -5.03777
H 14.76106 2.18930 -3.78326
H 15.25206 0.78142 -4.57852
H 18.62312 -0.15128 -4.25818
H 18.48895 -1.57197 -3.23905
H 19.60869 1.09558 -2.77811
H 20.34266 -0.49214 -2.34770
H 19.03825 0.26440 -1.32765
H 16.82307 -4.88226 1.23140
H 16.75176 -4.16799 -0.41205
H 15.20747 -4.58361 0.43335
H 13.63360 -2.27462 4.73406
H 14.65988 -3.22160 8.81240
H 14.73969 -1.34608 8.81076
H 16.09013 -2.43325 8.40258

