%nproc=24
%mem=175gb
#p cam-b3lyp/Def2SVP td=(nstates=5)

TDDFT excited states in gaussian

0 1
Mg 13.14495 1.17945 1.00580
C 10.74392 0.24657 3.50457
C 14.40982 3.40078 3.26422
C 14.97710 2.33930 -1.31054
C 11.02222 -0.24078 -1.36540
N 12.56650 1.66798 3.08402
C 11.67767 1.20521 3.95015
C 11.84726 1.74442 5.39586
C 12.62128 3.10934 5.05417
C 13.27254 2.69750 3.73549
C 11.68885 4.27800 4.78188
C 12.72210 0.79603 6.28874
C 12.67389 1.09905 7.78794
H 12.73613 -0.01820 8.72622
N 14.79103 2.28391 1.10164
C 15.15850 3.11158 2.10225
C 16.43758 3.70566 1.68372
C 16.71312 3.28684 0.28251
C 15.46706 2.62291 -0.04403
C 17.30186 4.51180 2.60924
C 17.89668 3.46672 -0.61917
O 17.82737 3.22900 -1.87676
C 19.11233 4.01824 -0.00315
N 12.92543 1.25750 -1.06012
C 13.89455 1.76868 -1.83950
C 13.63737 1.46885 -3.29702
C 12.41515 0.43761 -3.31434
C 12.10582 0.38638 -1.80203
C 13.29870 2.67382 -4.17437
C 12.63506 -0.90175 -4.06960
C 13.66296 -1.74033 -3.34461
N 11.32281 0.01919 1.04595
C 10.58642 -0.45110 -0.06339
C 9.36310 -1.08896 0.46486
C 9.46225 -0.92387 1.85461
C 10.65267 -0.21419 2.16886
C 8.32545 -1.67206 -0.31578
C 8.82528 -1.17924 3.12652
O 7.83789 -1.81626 3.49120
C 9.56386 -0.32193 4.24273
C 9.83877 -1.22367 5.41483
O 10.62673 -2.17961 5.30569
O 9.29860 -0.68361 6.52249
C 9.55426 -1.53624 7.71391
H 14.73719 4.28464 3.81239
H 15.62751 2.62126 -2.14176
H 10.35824 -0.79310 -2.03380
H 10.91949 1.96210 5.91125
H 13.37930 3.33113 5.80089
H 10.65479 3.96872 4.74699
H 11.99528 4.68229 3.82600
H 11.85761 5.07331 5.51355
H 13.78304 0.99582 6.09069
H 12.46459 -0.23140 6.11928
H 11.84724 1.77207 8.04607
H 13.57132 1.66122 8.05738
H 16.76220 4.79074 3.52267
H 17.50198 5.46599 2.10989
H 18.25279 4.02251 2.83060
H 18.88893 4.99085 0.42881
H 19.87476 3.98888 -0.78400
H 19.41094 3.36682 0.82576
H 14.50005 0.99904 -3.75326
H 11.52740 0.86609 -3.80234
H 13.98316 2.79293 -5.03541
H 13.30900 3.56076 -3.55488
H 12.28643 2.68350 -4.57488
H 13.03738 -0.71204 -5.06775
H 11.72677 -1.48199 -4.19340
H 14.61231 -1.33656 -3.70901
H 13.55424 -2.79081 -3.60675
H 13.62306 -1.56400 -2.26343
H 8.05888 -2.60318 0.16636
H 8.64365 -1.83261 -1.34376
H 7.56243 -0.89283 -0.23921
H 8.90570 0.50609 4.50876
H 8.58099 -1.75971 8.16165
H 10.27691 -0.97362 8.33438
H 9.94224 -2.53352 7.54259

