%nproc=24
%mem=175gb
#p cam-b3lyp/Def2SVP td=(nstates=5)

TDDFT excited states in gaussian

0 1
Mg 13.14658 1.18029 0.99161
C 12.89158 3.78185 -1.46724
C 12.65677 -1.05399 -1.53875
C 12.91647 -1.10150 3.18431
C 12.47611 3.59471 3.41374
N 12.82823 1.45102 -1.18040
C 12.81241 2.48275 -2.01084
C 12.78653 2.09783 -3.51442
C 12.14294 0.63302 -3.37660
C 12.59640 0.29940 -1.95683
C 10.62354 0.63825 -3.40389
C 14.22392 2.03709 -4.14069
C 14.25718 1.97149 -5.66920
H 15.33786 2.65758 -6.37197
N 13.32075 -0.78908 0.81888
C 13.10631 -1.53099 -0.28786
C 13.34736 -2.92651 0.11035
C 13.56090 -2.96399 1.58266
C 13.24684 -1.59245 1.92957
C 13.43749 -4.05124 -0.87975
C 13.96660 -4.05697 2.52447
O 13.85916 -3.92545 3.79490
C 14.40546 -5.31991 1.91302
N 12.54588 1.19285 2.98192
C 12.59056 0.07288 3.72461
C 12.37692 0.37971 5.18769
C 12.42035 1.97419 5.30309
C 12.56904 2.33215 3.80805
C 11.07238 -0.13871 5.79253
C 13.43409 2.57940 6.31241
C 14.84739 2.32152 5.84181
N 12.93472 3.33014 1.02790
C 12.62846 4.13834 2.14463
C 12.47663 5.52266 1.65166
C 12.68405 5.41928 0.26790
C 12.92665 4.06295 -0.07998
C 12.13809 6.65552 2.44421
C 12.74243 6.14753 -0.97907
O 12.70154 7.33631 -1.29352
C 12.75421 5.10105 -2.17537
C 13.84510 5.50023 -3.13095
O 15.03795 5.45792 -2.78177
O 13.31932 5.65621 -4.35961
C 14.36457 6.04156 -5.34489
H 12.28560 -1.82338 -2.21636
H 12.93269 -1.83257 3.99594
H 12.36383 4.42009 4.12001
H 12.15537 2.72457 -4.13297
H 12.58178 -0.05992 -4.08977
H 10.22384 1.64137 -3.39272
H 10.31159 0.09682 -2.52038
H 10.25984 0.05821 -4.25690
H 14.67820 1.06706 -3.90107
H 14.82251 2.85993 -3.80121
H 13.28733 2.22566 -6.11388
H 14.42561 0.93413 -5.96843
H 13.07427 -3.74641 -1.86897
H 12.72841 -4.82050 -0.55523
H 14.43646 -4.48973 -0.92931
H 13.60753 -5.71550 1.28909
H 14.73893 -5.94600 2.74288
H 15.25097 -5.11140 1.24800
H 13.17365 -0.03811 5.79080
H 11.45407 2.38552 5.63011
H 11.22853 -0.79858 6.66676
H 10.51963 -0.65598 5.01959
H 10.36901 0.63200 6.10313
H 13.33703 2.09140 7.28533
H 13.30160 3.64434 6.47163
H 15.04425 1.30556 6.19700
H 15.53612 3.03605 6.28806
H 14.90065 2.30409 4.74704
H 12.78556 7.46215 2.12697
H 12.25283 6.44667 3.50581
H 11.08971 6.78457 2.16222
H 11.76961 5.12786 -2.64378
H 14.03110 6.97057 -5.81757
H 14.49528 5.16098 -6.00157
H 15.33311 6.33668 -4.95850

