%nproc=24
%mem=175gb
#p cam-b3lyp/Def2SVP td=(nstates=5)

TDDFT excited states in gaussian

0 1
Mg 7.88416 0.71828 0.60497
C 9.48272 -0.69708 3.48948
C 5.33258 1.65701 2.66477
C 6.24764 1.57279 -1.97554
C 9.95106 -1.29066 -1.35407
N 7.56439 0.45738 2.77796
C 8.26861 -0.04175 3.78259
C 7.67544 0.24395 5.18833
C 6.14225 0.46099 4.76279
C 6.35143 0.92192 3.32180
C 5.33590 -0.82688 4.74003
C 8.27920 1.53718 5.84029
C 7.97809 1.70647 7.33107
H 8.99920 2.30935 8.18332
N 6.31232 1.91552 0.41917
C 5.39149 2.20193 1.36326
C 4.43008 3.11366 0.72404
C 4.76684 3.21166 -0.72223
C 5.79847 2.19879 -0.82189
C 3.37328 3.85165 1.49344
C 4.23785 4.06556 -1.83454
O 4.50970 3.81669 -3.06214
C 3.31681 5.14537 -1.45090
N 7.92012 0.06408 -1.36812
C 7.14279 0.64027 -2.30177
C 7.53709 0.19565 -3.69002
C 8.90334 -0.61574 -3.50943
C 9.02075 -0.57418 -1.96999
C 6.51946 -0.67838 -4.42274
C 10.11787 -0.14629 -4.35630
C 10.57217 1.21955 -3.89425
N 9.56220 -0.59646 0.95666
C 10.26356 -1.35958 -0.00241
C 11.24662 -2.18323 0.73082
C 11.03157 -1.85660 2.07825
C 9.97450 -0.91220 2.17928
C 12.14424 -3.12215 0.14873
C 11.45128 -2.10394 3.43890
O 12.36177 -2.74302 3.96456
C 10.38220 -1.45917 4.42263
C 11.12689 -0.67884 5.47098
O 11.78491 0.32954 5.15983
O 10.76498 -1.12074 6.68922
C 11.46886 -0.36971 7.76268
H 4.38001 1.79524 3.17701
H 5.78988 1.91515 -2.90652
H 10.69860 -1.86989 -1.90027
H 7.75381 -0.57779 5.89002
H 5.67664 1.24755 5.35093
H 5.95829 -1.69478 4.89979
H 4.87388 -0.86744 3.76231
H 4.51411 -0.76987 5.45957
H 7.75659 2.41638 5.44202
H 9.33830 1.58700 5.67762
H 7.59767 0.78202 7.78232
H 7.15479 2.41658 7.44034
H 3.26253 3.45233 2.50915
H 2.41486 3.63372 1.00990
H 3.53071 4.93233 1.49492
H 2.45736 4.72140 -0.93702
H 3.11762 5.69988 -2.36998
H 3.82336 5.79806 -0.73117
H 7.71727 1.04864 -4.33270
H 8.78868 -1.67377 -3.78740
H 6.20585 -0.25937 -5.39750
H 5.66332 -0.82016 -3.77663
H 6.83967 -1.70192 -4.60991
H 9.82963 -0.03920 -5.40492
H 10.95890 -0.83073 -4.32178
H 9.89488 1.89685 -4.42305
H 11.60765 1.39535 -4.17869
H 10.39665 1.35017 -2.82011
H 13.10224 -2.97660 0.62993
H 12.21535 -2.98891 -0.92874
H 11.64646 -4.05853 0.41459
H 9.80116 -2.27467 4.85500
H 11.98121 -1.10872 8.38641
H 10.69384 0.25077 8.25065
H 12.29435 0.26828 7.46942

