%nproc=24
%mem=175gb
#p cam-b3lyp/Def2SVP td=(nstates=5)

TDDFT excited states in gaussian

0 1
Mg 0.00000 0.00000 0.00000
C -0.21700 -2.21800 2.80100
C -1.25500 2.44200 2.02600
C -0.24500 1.85000 -2.56400
C 0.14600 -2.82400 -2.03700
N -0.61700 -0.00900 2.12600
C -0.59400 -0.90800 3.10500
C -0.93600 -0.30900 4.50200
C -1.77300 0.96400 4.03200
C -1.15500 1.16800 2.66000
C -3.26300 0.68500 3.86300
C 0.34500 0.11000 5.29900
C 0.12400 0.39700 6.78700
H 1.16800 0.03300 7.73300
N -0.18500 1.96100 -0.15200
C -0.70300 2.80000 0.77700
C -0.62000 4.15600 0.19300
C -0.18700 4.01500 -1.22500
C -0.21400 2.58300 -1.38000
C -0.88700 5.40600 0.97400
C 0.18100 5.01300 -2.27700
O 0.30300 4.69000 -3.50800
C 0.31000 6.41400 -1.83700
N -0.26500 -0.41300 -2.02900
C -0.27900 0.56900 -2.93700
C -0.19600 0.02400 -4.33200
C 0.12400 -1.53300 -4.18000
C 0.08600 -1.63200 -2.63500
C -1.45100 0.20500 -5.19700
C 1.37300 -2.07000 -4.92300
C 2.62600 -1.49000 -4.30600
N 0.15000 -2.14400 0.30300
C 0.17300 -3.13600 -0.68800
C 0.17300 -4.43800 0.00400
C 0.13300 -4.11100 1.35800
C 0.08300 -2.69500 1.50200
C 0.14900 -5.71500 -0.62300
C 0.09600 -4.62900 2.71600
O 0.20800 -5.74700 3.22100
C -0.25500 -3.42800 3.70100
C 0.71700 -3.48200 4.84800
O 1.93100 -3.25500 4.66900
O 0.03800 -3.55600 6.00300
C 0.94300 -3.58300 7.18300
H -1.85900 3.22000 2.49700
H -0.21800 2.45300 -3.47400
H 0.27600 -3.74700 -2.60500
H -1.55400 -0.94900 5.13200
H -1.58500 1.83100 4.66500
H -3.48400 -0.37700 3.96900
H -3.51100 1.02700 2.85800
H -3.85200 1.30100 4.54300
H 0.66900 1.09600 4.96600
H 1.13000 -0.63900 5.18900
H -0.84400 0.02600 7.12500
H 0.06200 1.47700 6.92100
H -1.34400 5.18600 1.93800
H -1.65100 5.96300 0.43200
H 0.00700 6.02000 1.08400
H -0.63500 6.74400 -1.40500
H 0.66500 6.97000 -2.70400
H 1.04800 6.46600 -1.03600
H 0.60800 0.50100 -4.89100
H -0.69200 -2.15600 -4.54700
H -1.26700 0.74000 -6.12900
H -2.20400 0.71400 -4.59600
H -1.96700 -0.72000 -5.45300
H 1.35600 -1.75900 -5.96700
H 1.45200 -3.15700 -4.90200
H 2.71400 -0.52200 -4.79800
H 3.48700 -2.12100 -4.52900
H 2.49500 -1.30300 -3.24000
H 0.86700 -6.33300 -0.08400
H 0.40400 -5.64200 -1.68000
H -0.89100 -5.99900 -0.46300
H -1.28300 -3.58100 4.02800
H 0.69800 -4.47800 7.75500
H 0.83300 -2.61900 7.68000
H 2.00000 -3.75400 6.97600
Mg 15.77381 1.42257 1.19091
C 15.24554 4.97219 1.20575
C 15.13885 1.49254 -2.15969
C 15.78806 -1.75016 1.22267
C 15.23898 1.46848 4.63439
N 15.27024 3.07924 -0.18536
C 15.15764 4.39459 -0.07803
C 15.01856 5.14084 -1.43204
C 14.42908 3.93398 -2.31231
C 15.00700 2.75615 -1.53040
C 12.91304 3.84006 -2.26622
C 16.40059 5.63488 -1.98695
C 16.30958 6.63451 -3.14204
H 17.30938 7.69567 -3.22458
N 15.98730 0.12432 -0.29487
C 15.70290 0.32574 -1.59864
C 16.01426 -0.94103 -2.27871
C 16.34934 -1.95818 -1.24535
C 16.02730 -1.22368 -0.03833
C 16.05344 -1.07391 -3.77345
C 16.86121 -3.36425 -1.32998
O 16.85524 -4.14531 -0.31375
C 17.28279 -3.82954 -2.65937
N 15.33902 0.02535 2.66776
C 15.47556 -1.29187 2.43496
C 15.37484 -2.08549 3.71575
C 15.38372 -1.00352 4.89340
C 15.39881 0.28955 4.04894
C 14.13935 -2.97513 3.85167
C 16.46013 -1.17638 5.99981
C 17.83641 -0.93369 5.42332
N 15.50655 2.94221 2.70330
C 15.27121 2.74220 4.08123
C 15.04123 4.07244 4.68122
C 15.13669 4.95905 3.59802
C 15.38704 4.23078 2.40368
C 14.73808 4.32721 6.04845
C 15.07205 6.34446 3.19165
O 14.97268 7.41923 3.78218
C 15.01402 6.40332 1.60434
C 16.01106 7.42978 1.14084
O 17.22933 7.25177 1.31611
O 15.38174 8.34250 0.37843
C 16.33124 9.37572 -0.11424
H 14.73444 1.36871 -3.16468
H 15.89122 -2.83436 1.30830
H 15.16260 1.57634 5.71846
H 14.32157 5.97025 -1.42410
H 14.82658 3.95200 -3.32376
H 12.48815 4.53002 -1.55238
H 12.68997 2.81926 -1.98469
H 12.49640 3.97414 -3.26860
H 16.89959 4.80172 -2.49839
H 17.00224 6.04604 -1.19981
H 15.29976 7.04867 -3.25013
H 16.48128 6.09886 -4.07885
H 15.60169 -0.20433 -4.26657
H 15.39496 -1.90846 -4.03764
H 17.05661 -1.28184 -4.15169
H 16.44736 -3.75139 -3.35104
H 17.70062 -4.82570 -2.50138
H 18.06457 -3.15889 -3.03308
H 16.22976 -2.73998 3.83340
H 14.43672 -1.00244 5.45288
H 14.38510 -4.03971 4.02589
H 13.53924 -2.86469 2.95825
H 13.44301 -2.68181 4.63543
H 16.45704 -2.20305 6.37410
H 16.31194 -0.52227 6.85256
H 18.08976 -1.89890 4.97470
H 18.53964 -0.66723 6.20977
H 17.79975 -0.19402 4.61511
H 15.33476 5.17919 6.34612
H 14.94562 3.45881 6.67020
H 13.66688 4.53333 5.97558
H 13.99381 6.66752 1.32339
H 15.93451 10.34765 0.19501
H 16.43158 9.19530 -1.20104
H 17.31983 9.40005 0.32910

