%nproc=24
%mem=175gb
#p cam-b3lyp/Def2SVP td=(nstates=5)

TDDFT excited states in gaussian

0 1
Mg 0.00000 0.00000 0.00000
C -0.21700 -2.21800 2.80100
C -1.25500 2.44200 2.02600
C -0.24500 1.85000 -2.56400
C 0.14600 -2.82400 -2.03700
N -0.61700 -0.00900 2.12600
C -0.59400 -0.90800 3.10500
C -0.93600 -0.30900 4.50200
C -1.77300 0.96400 4.03200
C -1.15500 1.16800 2.66000
C -3.26300 0.68500 3.86300
C 0.34500 0.11000 5.29900
C 0.12400 0.39700 6.78700
H 1.16800 0.03300 7.73300
N -0.18500 1.96100 -0.15200
C -0.70300 2.80000 0.77700
C -0.62000 4.15600 0.19300
C -0.18700 4.01500 -1.22500
C -0.21400 2.58300 -1.38000
C -0.88700 5.40600 0.97400
C 0.18100 5.01300 -2.27700
O 0.30300 4.69000 -3.50800
C 0.31000 6.41400 -1.83700
N -0.26500 -0.41300 -2.02900
C -0.27900 0.56900 -2.93700
C -0.19600 0.02400 -4.33200
C 0.12400 -1.53300 -4.18000
C 0.08600 -1.63200 -2.63500
C -1.45100 0.20500 -5.19700
C 1.37300 -2.07000 -4.92300
C 2.62600 -1.49000 -4.30600
N 0.15000 -2.14400 0.30300
C 0.17300 -3.13600 -0.68800
C 0.17300 -4.43800 0.00400
C 0.13300 -4.11100 1.35800
C 0.08300 -2.69500 1.50200
C 0.14900 -5.71500 -0.62300
C 0.09600 -4.62900 2.71600
O 0.20800 -5.74700 3.22100
C -0.25500 -3.42800 3.70100
C 0.71700 -3.48200 4.84800
O 1.93100 -3.25500 4.66900
O 0.03800 -3.55600 6.00300
C 0.94300 -3.58300 7.18300
H -1.85900 3.22000 2.49700
H -0.21800 2.45300 -3.47400
H 0.27600 -3.74700 -2.60500
H -1.55400 -0.94900 5.13200
H -1.58500 1.83100 4.66500
H -3.48400 -0.37700 3.96900
H -3.51100 1.02700 2.85800
H -3.85200 1.30100 4.54300
H 0.66900 1.09600 4.96600
H 1.13000 -0.63900 5.18900
H -0.84400 0.02600 7.12500
H 0.06200 1.47700 6.92100
H -1.34400 5.18600 1.93800
H -1.65100 5.96300 0.43200
H 0.00700 6.02000 1.08400
H -0.63500 6.74400 -1.40500
H 0.66500 6.97000 -2.70400
H 1.04800 6.46600 -1.03600
H 0.60800 0.50100 -4.89100
H -0.69200 -2.15600 -4.54700
H -1.26700 0.74000 -6.12900
H -2.20400 0.71400 -4.59600
H -1.96700 -0.72000 -5.45300
H 1.35600 -1.75900 -5.96700
H 1.45200 -3.15700 -4.90200
H 2.71400 -0.52200 -4.79800
H 3.48700 -2.12100 -4.52900
H 2.49500 -1.30300 -3.24000
H 0.86700 -6.33300 -0.08400
H 0.40400 -5.64200 -1.68000
H -0.89100 -5.99900 -0.46300
H -1.28300 -3.58100 4.02800
H 0.69800 -4.47800 7.75500
H 0.83300 -2.61900 7.68000
H 2.00000 -3.75400 6.97600
Mg 10.50062 0.94904 0.79828
C 9.06018 -1.87161 -0.88936
C 9.29861 2.88989 -1.73605
C 12.13481 3.37992 2.01799
C 12.51808 -1.29808 2.53783
N 9.34334 0.45680 -1.02123
C 8.79969 -0.64036 -1.52624
C 7.86193 -0.39418 -2.73849
C 8.47514 1.00384 -3.23686
C 9.04703 1.50583 -1.91262
C 9.62144 0.84143 -4.22122
C 6.35979 -0.24276 -2.31111
C 5.35380 -0.30915 -3.46234
H 4.05965 -0.94085 -3.22023
N 10.29879 2.90296 0.51538
C 9.76812 3.51865 -0.56193
C 9.86942 4.96112 -0.29143
C 10.65247 5.14986 0.95994
C 11.08628 3.78942 1.20715
C 9.18863 5.99747 -1.13757
C 10.97032 6.35726 1.78901
O 11.86591 6.32802 2.70546
C 10.26861 7.59948 1.43405
N 12.23912 1.05089 1.93390
C 12.70620 2.23069 2.37867
C 13.80313 2.03392 3.39770
C 13.80953 0.46858 3.72521
C 12.72747 -0.00280 2.72905
C 15.20223 2.46802 2.96128
C 13.66827 0.06119 5.21743
C 12.28885 0.41923 5.72182
N 10.63978 -1.19959 0.97741
C 11.57434 -1.93315 1.74068
C 11.34405 -3.36379 1.45318
C 10.29846 -3.36224 0.51765
C 9.91844 -2.02424 0.22637
C 12.08806 -4.45092 1.99236
C 9.43694 -4.18786 -0.29772
O 9.24057 -5.39769 -0.40493
C 8.68201 -3.25522 -1.34015
C 7.22383 -3.62387 -1.32220
O 6.53526 -3.42960 -0.30497
O 6.83394 -3.94035 -2.57047
C 5.39194 -4.30257 -2.60592
H 9.16426 3.55469 -2.58980
H 12.65958 4.17755 2.54891
H 13.03997 -2.06510 3.11402
H 7.93452 -1.13407 -3.52658
H 7.69578 1.67229 -3.59344
H 9.91314 -0.19228 -4.33296
H 10.43968 1.42405 -3.81862
H 9.36461 1.30390 -5.17856
H 6.18668 0.78585 -1.96942
H 6.10154 -0.96716 -1.56333
H 5.80560 -0.69904 -4.38256
H 5.05496 0.70952 -3.72122
H 8.82481 5.57118 -2.08060
H 9.95692 6.71608 -1.44285
H 8.40100 6.52938 -0.59964
H 10.48760 7.85513 0.40006
H 10.55979 8.32702 2.19417
H 9.18918 7.42038 1.49213
H 13.58925 2.58230 4.30690
H 14.75096 -0.00862 3.41562
H 15.65848 3.21487 3.63813
H 15.14030 2.85608 1.95326
H 15.92394 1.66006 2.85386
H 14.37818 0.62065 5.83158
H 13.84904 -0.99349 5.39621
H 12.38817 1.47730 5.98201
H 12.03248 -0.17925 6.59367
H 11.54514 0.34539 4.91988
H 11.37084 -5.21219 2.26905
H 12.68665 -4.13866 2.84556
H 12.70724 -4.71048 1.12951
H 9.13479 -3.42342 -2.31805
H 5.32367 -5.29876 -3.05382
H 4.88898 -3.47460 -3.14002
H 4.89182 -4.46222 -1.65785

