%nproc=24
%mem=175gb
#p cam-b3lyp/Def2SVP td=(nstates=5)

TDDFT excited states in gaussian

0 1
Mg 13.14598 1.18234 1.00561
C 11.33478 -0.47284 3.62458
C 13.56825 3.79753 3.15435
C 14.35041 2.84596 -1.41289
C 11.62773 -1.00863 -1.23945
N 12.49039 1.50244 3.09367
C 11.86150 0.77839 4.00723
C 11.86315 1.39679 5.43100
C 12.06799 2.93670 5.02409
C 12.78558 2.74355 3.68976
C 10.76229 3.66890 4.76261
C 13.05256 0.87167 6.30938
C 12.94070 1.19253 7.80146
H 13.43902 0.21320 8.76326
N 14.27008 2.81787 1.00559
C 14.33574 3.76014 1.96948
C 15.29201 4.76687 1.48349
C 15.66072 4.42583 0.08261
C 14.73865 3.33799 -0.17527
C 15.82485 5.86913 2.35214
C 16.66675 4.99418 -0.87189
O 16.65257 4.69994 -2.11931
C 17.61073 5.97742 -0.32086
N 12.85154 1.09539 -1.05062
C 13.53972 1.89728 -1.88206
C 13.36800 1.46858 -3.31981
C 12.61292 0.06005 -3.26087
C 12.38968 -0.04380 -1.73615
C 12.58234 2.42998 -4.21135
C 13.28911 -1.13209 -3.99179
C 14.57514 -1.50526 -3.29019
N 11.88299 -0.56466 1.15018
C 11.33948 -1.31483 0.08439
C 10.45444 -2.33753 0.67872
C 10.52709 -2.09474 2.05867
C 11.38023 -0.98535 2.30548
C 9.68255 -3.29086 -0.04341
C 10.06771 -2.51798 3.36195
O 9.39662 -3.45929 3.78301
C 10.47059 -1.40719 4.42507
C 11.09387 -2.09913 5.60628
O 12.17545 -2.70139 5.48762
O 10.42582 -1.75401 6.72206
C 11.01367 -2.40667 7.92218
H 13.56239 4.76003 3.66664
H 14.82564 3.31562 -2.27721
H 11.19493 -1.79157 -1.86584
H 10.93639 1.27720 5.97927
H 12.71251 3.45016 5.73283
H 9.91492 2.99967 4.77853
H 10.86911 4.12088 3.78519
H 10.64728 4.49773 5.46698
H 13.95837 1.44020 6.06234
H 13.18763 -0.18407 6.17593
H 11.93208 1.52339 8.07743
H 13.57479 2.05535 8.01935
H 15.24787 5.96444 3.28026
H 15.64354 6.81023 1.82174
H 16.89539 5.77295 2.54540
H 17.05704 6.81523 0.09623
H 18.30644 6.20101 -1.13195
H 18.15335 5.51369 0.51048
H 14.32914 1.33223 -3.80013
H 11.61554 0.11282 -3.72163
H 13.14843 2.75976 -5.10290
H 12.28297 3.28136 -3.61464
H 11.62653 2.05118 -4.56930
H 13.56295 -0.84579 -5.01022
H 12.65594 -2.01014 -4.06333
H 15.29702 -0.79462 -3.70370
H 14.85415 -2.53118 -3.52187
H 14.50528 -1.31495 -2.21290
H 9.79309 -4.23565 0.47201
H 10.00668 -3.36205 -1.07958
H 8.68839 -2.84483 0.04598
H 9.56148 -0.87002 4.69812
H 10.20550 -2.95543 8.41554
H 11.49574 -1.59440 8.49800
H 11.73712 -3.19692 7.75915

