%nproc=24
%mem=175gb
#p cam-b3lyp/Def2SVP td=(nstates=5)

TDDFT excited states in gaussian

0 1
Mg 13.14069 1.17591 1.00579
C 10.50087 1.91543 3.32171
C 15.33960 2.00218 3.47898
C 15.47317 0.96872 -1.13525
C 10.80157 1.51715 -1.55502
N 12.83779 1.85533 3.08879
C 11.79073 2.04075 3.87849
C 12.14585 2.30081 5.36705
C 13.63546 2.86527 5.16383
C 13.98111 2.17417 3.84641
C 13.68464 4.36787 4.94222
C 12.14189 0.98462 6.22125
C 12.17532 1.20080 7.73581
H 11.43652 0.27304 8.58780
N 15.09857 0.96884 1.25556
C 15.82522 1.33805 2.33117
C 17.21888 0.98983 2.01398
C 17.27838 0.53623 0.59785
C 15.92639 0.83324 0.16890
C 18.31936 1.02722 3.03425
C 18.37479 -0.05384 -0.23636
O 18.27295 -0.15236 -1.51023
C 19.60841 -0.42693 0.47109
N 13.19010 1.44158 -1.05560
C 14.32251 1.23928 -1.75177
C 14.05326 1.21948 -3.23754
C 12.46091 1.20930 -3.38550
C 12.06765 1.31989 -1.89603
C 14.63065 2.38946 -4.03388
C 11.83996 0.06365 -4.23083
C 12.03699 -1.26073 -3.52899
N 11.00108 1.44839 0.87974
C 10.22723 1.59304 -0.29258
C 8.83962 1.86850 0.13295
C 8.90743 1.88798 1.53421
C 10.24679 1.66206 1.95204
C 7.73600 2.10873 -0.73333
C 8.15248 2.05884 2.75468
O 6.95985 2.18928 3.02735
C 9.17345 2.20988 3.96348
C 8.71583 1.30430 5.07390
O 8.72203 0.06955 4.92563
O 8.55416 2.02954 6.19562
C 8.11141 1.17337 7.32821
H 16.10805 2.45452 4.10648
H 16.21944 0.79573 -1.91412
H 9.99524 1.53853 -2.29126
H 11.52996 3.04495 5.85768
H 14.29751 2.52735 5.95683
H 12.69706 4.79256 4.83990
H 14.25475 4.51275 4.03390
H 14.26008 4.84779 5.73901
H 13.09950 0.46600 6.08430
H 11.30497 0.36534 5.96302
H 11.94746 2.23824 8.00923
H 13.19965 1.05034 8.08529
H 18.00793 1.55768 3.94256
H 19.12017 1.64808 2.61820
H 18.72035 0.03631 3.25780
H 20.01990 0.44943 0.96620
H 20.23868 -0.91228 -0.27662
H 19.35605 -1.14451 1.25976
H 14.45410 0.32139 -3.69126
H 12.09150 2.12154 -3.87662
H 15.30198 2.07055 -4.85345
H 15.15183 3.04464 -3.34858
H 13.89232 3.05682 -4.47513
H 12.35073 -0.01627 -5.19357
H 10.78395 0.20258 -4.43707
H 13.05214 -1.54604 -3.82082
H 11.30719 -1.98992 -3.87498
H 12.03034 -1.13396 -2.44017
H 6.90024 1.54862 -0.33549
H 7.96200 1.81445 -1.75612
H 7.63928 3.19281 -0.62995
H 9.17280 3.25841 4.26377
H 7.18571 1.60985 7.71582
H 8.97324 1.12389 8.01999
H 7.78934 0.16458 7.09786

