%nproc=24
%mem=175gb
#p cam-b3lyp/Def2SVP td=(nstates=5)

TDDFT excited states in gaussian

0 1
Mg 0.00000 0.00000 0.00000
C -0.21700 -2.21800 2.80100
C -1.25500 2.44200 2.02600
C -0.24500 1.85000 -2.56400
C 0.14600 -2.82400 -2.03700
N -0.61700 -0.00900 2.12600
C -0.59400 -0.90800 3.10500
C -0.93600 -0.30900 4.50200
C -1.77300 0.96400 4.03200
C -1.15500 1.16800 2.66000
C -3.26300 0.68500 3.86300
C 0.34500 0.11000 5.29900
C 0.12400 0.39700 6.78700
H 1.16800 0.03300 7.73300
N -0.18500 1.96100 -0.15200
C -0.70300 2.80000 0.77700
C -0.62000 4.15600 0.19300
C -0.18700 4.01500 -1.22500
C -0.21400 2.58300 -1.38000
C -0.88700 5.40600 0.97400
C 0.18100 5.01300 -2.27700
O 0.30300 4.69000 -3.50800
C 0.31000 6.41400 -1.83700
N -0.26500 -0.41300 -2.02900
C -0.27900 0.56900 -2.93700
C -0.19600 0.02400 -4.33200
C 0.12400 -1.53300 -4.18000
C 0.08600 -1.63200 -2.63500
C -1.45100 0.20500 -5.19700
C 1.37300 -2.07000 -4.92300
C 2.62600 -1.49000 -4.30600
N 0.15000 -2.14400 0.30300
C 0.17300 -3.13600 -0.68800
C 0.17300 -4.43800 0.00400
C 0.13300 -4.11100 1.35800
C 0.08300 -2.69500 1.50200
C 0.14900 -5.71500 -0.62300
C 0.09600 -4.62900 2.71600
O 0.20800 -5.74700 3.22100
C -0.25500 -3.42800 3.70100
C 0.71700 -3.48200 4.84800
O 1.93100 -3.25500 4.66900
O 0.03800 -3.55600 6.00300
C 0.94300 -3.58300 7.18300
H -1.85900 3.22000 2.49700
H -0.21800 2.45300 -3.47400
H 0.27600 -3.74700 -2.60500
H -1.55400 -0.94900 5.13200
H -1.58500 1.83100 4.66500
H -3.48400 -0.37700 3.96900
H -3.51100 1.02700 2.85800
H -3.85200 1.30100 4.54300
H 0.66900 1.09600 4.96600
H 1.13000 -0.63900 5.18900
H -0.84400 0.02600 7.12500
H 0.06200 1.47700 6.92100
H -1.34400 5.18600 1.93800
H -1.65100 5.96300 0.43200
H 0.00700 6.02000 1.08400
H -0.63500 6.74400 -1.40500
H 0.66500 6.97000 -2.70400
H 1.04800 6.46600 -1.03600
H 0.60800 0.50100 -4.89100
H -0.69200 -2.15600 -4.54700
H -1.26700 0.74000 -6.12900
H -2.20400 0.71400 -4.59600
H -1.96700 -0.72000 -5.45300
H 1.35600 -1.75900 -5.96700
H 1.45200 -3.15700 -4.90200
H 2.71400 -0.52200 -4.79800
H 3.48700 -2.12100 -4.52900
H 2.49500 -1.30300 -3.24000
H 0.86700 -6.33300 -0.08400
H 0.40400 -5.64200 -1.68000
H -0.89100 -5.99900 -0.46300
H -1.28300 -3.58100 4.02800
H 0.69800 -4.47800 7.75500
H 0.83300 -2.61900 7.68000
H 2.00000 -3.75400 6.97600
Mg 8.94079 0.81264 0.67844
C 8.35928 2.22677 3.92516
C 7.89049 3.77918 -0.63729
C 9.01194 -0.54704 -2.18750
C 8.84036 -2.32975 2.18209
N 8.24135 2.68577 1.62419
C 8.12109 3.12822 2.86681
C 7.80123 4.64280 2.98214
C 7.12649 4.85652 1.54064
C 7.81732 3.72810 0.77768
C 5.62992 4.59287 1.53162
C 9.09451 5.51604 3.14617
C 8.84298 6.96393 3.57289
H 9.80671 7.60446 4.46363
N 8.98837 1.62937 -1.12967
C 8.53973 2.85237 -1.48218
C 8.78469 2.96943 -2.92803
C 9.26339 1.65307 -3.43077
C 9.08268 0.83717 -2.24682
C 8.63873 4.26276 -3.67597
C 9.78407 1.20022 -4.76119
O 9.91837 -0.04266 -5.04411
C 10.04372 2.25128 -5.75586
N 8.71764 -1.15506 0.04544
C 8.84598 -1.48257 -1.25232
C 8.91959 -2.98009 -1.43229
C 9.05768 -3.58373 0.04220
C 8.94536 -2.27916 0.86127
C 7.72586 -3.62499 -2.13621
C 10.26681 -4.52175 0.30827
C 11.55588 -3.73539 0.23542
N 8.83952 0.05850 2.70059
C 8.78182 -1.29326 3.10494
C 8.60652 -1.30181 4.57178
C 8.55086 0.05642 4.91906
C 8.66194 0.85490 3.74877
C 8.47262 -2.46107 5.38683
C 8.41273 0.99614 6.00835
O 8.37008 0.90451 7.23453
C 8.15556 2.44157 5.39926
C 9.06947 3.40983 6.09909
O 10.30290 3.32424 5.96524
O 8.33452 4.40314 6.63159
C 9.19751 5.39476 7.32712
H 7.36563 4.58234 -1.15529
H 9.14311 -1.06708 -3.13925
H 8.89843 -3.26871 2.73677
H 7.09694 4.90008 3.76417
H 7.39395 5.82174 1.11853
H 5.28622 4.18945 2.47250
H 5.46093 3.88394 0.73168
H 5.08894 5.50057 1.24917
H 9.53945 5.68619 2.15732
H 9.78296 5.05329 3.82625
H 7.82079 7.11343 3.94130
H 8.90503 7.60222 2.68815
H 8.11436 5.01714 -3.07651
H 7.96641 4.07044 -4.51910
H 9.59003 4.63654 -4.06066
H 9.12712 2.80553 -5.94323
H 10.49462 1.74107 -6.60923
H 10.76127 2.96337 -5.33319
H 9.79334 -3.25781 -2.00896
H 8.18823 -4.20064 0.31300
H 8.00925 -4.19929 -3.03841
H 7.01692 -2.84734 -2.38759
H 7.12826 -4.29065 -1.51574
H 10.32773 -5.29007 -0.46641
H 10.21557 -5.03183 1.26440
H 11.76721 -3.70682 -0.83772
H 12.34744 -4.24607 0.78011
H 11.40602 -2.70215 0.56949
H 9.08753 -2.29898 6.26212
H 8.77081 -3.36009 4.85147
H 7.39743 -2.43806 5.58354
H 7.10394 2.68228 5.55962
H 8.82640 5.47708 8.35337
H 9.16408 6.30858 6.70457
H 10.23326 5.12538 7.49774

