%nproc=24
%mem=175gb
#p cam-b3lyp/Def2SVP td=(nstates=5)

TDDFT excited states in gaussian

0 1
Mg 31.52475 2.84247 2.40148
C 29.19470 0.11800 2.23653
C 29.08365 4.81504 1.06559
C 33.68435 5.14916 2.11385
C 34.06812 0.47105 2.63243
N 29.44851 2.40749 1.77516
C 28.65171 1.35027 1.81688
C 27.17021 1.64699 1.46096
C 27.39498 2.97095 0.58034
C 28.70599 3.45479 1.19666
C 27.63757 2.68076 -0.89148
C 26.29810 1.94326 2.73126
C 24.78701 1.93648 2.48977
H 23.91558 1.42955 3.54622
N 31.29039 4.79842 2.16081
C 30.22673 5.43026 1.62166
C 30.55208 6.86459 1.65367
C 31.96237 7.01574 2.10418
C 32.38275 5.62903 2.12423
C 29.54269 7.93479 1.35497
C 32.79859 8.21148 2.44641
O 34.06999 8.12668 2.58487
C 32.09761 9.50156 2.52271
N 33.58995 2.81871 2.16330
C 34.29379 3.96346 2.11747
C 35.77657 3.69659 2.21998
C 35.90957 2.14617 2.58890
C 34.41816 1.74707 2.54628
C 36.59418 3.99226 0.96280
C 36.73334 1.79274 3.85742
C 36.01532 2.28580 5.09303
N 31.63461 0.69551 2.61722
C 32.80154 -0.09809 2.66769
C 32.36693 -1.50956 2.70356
C 30.96677 -1.43944 2.64779
C 30.55836 -0.08104 2.56145
C 33.22612 -2.64412 2.73005
C 29.74178 -2.20614 2.63161
O 29.45983 -3.39601 2.76748
C 28.54470 -1.23777 2.23708
C 27.41780 -1.47410 3.20494
O 27.54921 -1.19220 4.40905
O 26.30464 -1.78747 2.51715
C 25.15638 -2.02026 3.43319
H 28.46957 5.46631 0.44298
H 34.46769 5.91052 2.12724
H 34.79705 -0.32396 2.80358
H 26.68410 0.88295 0.86624
H 26.60362 3.69664 0.74910
H 27.73649 1.62252 -1.08251
H 28.55304 3.19843 -1.14639
H 26.85280 3.13877 -1.50034
H 26.43684 2.99191 3.02422
H 26.54004 1.26490 3.52620
H 24.52569 1.48353 1.52566
H 24.44505 2.97055 2.40153
H 28.63886 7.51784 0.89383
H 29.97463 8.57356 0.57698
H 29.30936 8.54900 2.22731
H 31.61838 9.70913 1.56893
H 32.84444 10.22009 2.86600
H 31.29689 9.42120 3.26635
H 36.22169 4.28579 3.01233
H 36.40966 1.57875 1.79029
H 37.41552 4.71306 1.13581
H 35.92278 4.35743 0.19704
H 37.03763 3.12050 0.48469
H 37.69961 2.30264 3.83572
H 36.93163 0.73124 3.96179
H 36.31265 3.33730 5.14814
H 36.34451 1.73594 5.97243
H 34.92832 2.25744 4.95421
H 32.81289 -3.33068 3.45695
H 34.24684 -2.36406 2.98195
H 33.13668 -2.98074 1.69373
H 28.25878 -1.47161 1.21085
H 24.76619 -3.01790 3.20926
H 24.47203 -1.16513 3.27767
H 25.36991 -2.10941 4.49191

