%nproc=24
%mem=175gb
#p cam-b3lyp/Def2SVP td=(nstates=5)

TDDFT excited states in gaussian

0 1
Mg 8.94231 0.80012 0.67327
C 8.79343 2.70925 -2.36188
C 8.45476 -1.98691 -1.23182
C 8.61860 -0.85802 3.35901
C 8.27618 3.75323 2.39986
N 8.67356 0.52515 -1.50490
C 8.69688 1.31702 -2.56638
C 8.69277 0.56941 -3.92676
C 8.01478 -0.80406 -3.44429
C 8.43230 -0.77995 -1.97536
C 6.49671 -0.78135 -3.50979
C 10.14077 0.33111 -4.48221
C 10.20324 -0.11452 -5.94483
H 11.31249 0.35693 -6.76932
N 9.07695 -1.15255 1.00116
C 8.86863 -2.14370 0.10925
C 9.07117 -3.39933 0.84853
C 9.25427 -3.07151 2.28857
C 8.96329 -1.65192 2.27482
C 9.15661 -4.73691 0.17252
C 9.61709 -3.90116 3.48283
O 9.48709 -3.45494 4.67732
C 10.04050 -5.28365 3.21650
N 8.30223 1.31882 2.58209
C 8.30759 0.41915 3.58133
C 8.07139 1.08490 4.91601
C 8.14724 2.65679 4.63145
C 8.33365 2.62776 3.09855
C 6.74400 0.75496 5.59834
C 9.15348 3.47841 5.48298
C 10.56998 3.08849 5.12677
N 8.77667 2.89409 0.16738
C 8.46575 3.96030 1.03950
C 8.35405 5.17999 0.21348
C 8.58688 4.73112 -1.09526
C 8.80678 3.32717 -1.08801
C 8.02445 6.48014 0.69005
C 8.68611 5.12398 -2.48252
O 8.67745 6.19712 -3.08422
C 8.69907 3.81194 -3.37961
C 9.81734 3.94231 -4.37711
O 11.00174 3.96931 -3.99886
O 9.31983 3.79508 -5.61855
C 10.39278 3.90538 -6.64248
H 8.08058 -2.89502 -1.70533
H 8.60261 -1.36349 4.32737
H 8.16777 4.73049 2.87513
H 8.08796 1.03197 -4.69748
H 8.45263 -1.66007 -3.95114
H 6.11882 0.19910 -3.75889
H 6.15538 -1.07998 -2.52726
H 6.13764 -1.55003 -4.20010
H 10.56890 -0.55557 -3.99719
H 10.75023 1.20290 -4.34373
H 9.24827 0.03618 -6.46279
H 10.35499 -1.19631 -5.97182
H 8.82003 -4.68288 -0.87017
H 8.42457 -5.38929 0.66077
H 10.14657 -5.18992 0.25864
H 9.24681 -5.80957 2.69121
H 10.34354 -5.68804 4.18424
H 10.90352 -5.26140 2.54174
H 8.84658 0.81810 5.62383
H 7.18379 3.15224 4.82153
H 6.86816 0.33180 6.61303
H 6.19572 0.07008 4.96520
H 6.05150 1.59003 5.68949
H 9.02631 3.25036 6.54410
H 9.04106 4.55137 5.36845
H 10.73749 2.19033 5.72872
H 11.26503 3.88061 5.39785
H 10.64479 2.79746 4.07256
H 8.69558 7.17149 0.19799
H 8.11330 6.54109 1.77271
H 6.98500 6.55157 0.35882
H 7.72487 3.73682 -3.86425
H 10.08918 4.69222 -7.33990
H 10.51740 2.88676 -7.05554
H 11.35957 4.27198 -6.31788

