%nproc=24
%mem=175gb
#p cam-b3lyp/Def2SVP td=(nstates=5)

TDDFT excited states in gaussian

0 1
Mg 0.00000 0.00000 0.00000
C -0.21700 -2.21800 2.80100
C -1.25500 2.44200 2.02600
C -0.24500 1.85000 -2.56400
C 0.14600 -2.82400 -2.03700
N -0.61700 -0.00900 2.12600
C -0.59400 -0.90800 3.10500
C -0.93600 -0.30900 4.50200
C -1.77300 0.96400 4.03200
C -1.15500 1.16800 2.66000
C -3.26300 0.68500 3.86300
C 0.34500 0.11000 5.29900
C 0.12400 0.39700 6.78700
H 1.16800 0.03300 7.73300
N -0.18500 1.96100 -0.15200
C -0.70300 2.80000 0.77700
C -0.62000 4.15600 0.19300
C -0.18700 4.01500 -1.22500
C -0.21400 2.58300 -1.38000
C -0.88700 5.40600 0.97400
C 0.18100 5.01300 -2.27700
O 0.30300 4.69000 -3.50800
C 0.31000 6.41400 -1.83700
N -0.26500 -0.41300 -2.02900
C -0.27900 0.56900 -2.93700
C -0.19600 0.02400 -4.33200
C 0.12400 -1.53300 -4.18000
C 0.08600 -1.63200 -2.63500
C -1.45100 0.20500 -5.19700
C 1.37300 -2.07000 -4.92300
C 2.62600 -1.49000 -4.30600
N 0.15000 -2.14400 0.30300
C 0.17300 -3.13600 -0.68800
C 0.17300 -4.43800 0.00400
C 0.13300 -4.11100 1.35800
C 0.08300 -2.69500 1.50200
C 0.14900 -5.71500 -0.62300
C 0.09600 -4.62900 2.71600
O 0.20800 -5.74700 3.22100
C -0.25500 -3.42800 3.70100
C 0.71700 -3.48200 4.84800
O 1.93100 -3.25500 4.66900
O 0.03800 -3.55600 6.00300
C 0.94300 -3.58300 7.18300
H -1.85900 3.22000 2.49700
H -0.21800 2.45300 -3.47400
H 0.27600 -3.74700 -2.60500
H -1.55400 -0.94900 5.13200
H -1.58500 1.83100 4.66500
H -3.48400 -0.37700 3.96900
H -3.51100 1.02700 2.85800
H -3.85200 1.30100 4.54300
H 0.66900 1.09600 4.96600
H 1.13000 -0.63900 5.18900
H -0.84400 0.02600 7.12500
H 0.06200 1.47700 6.92100
H -1.34400 5.18600 1.93800
H -1.65100 5.96300 0.43200
H 0.00700 6.02000 1.08400
H -0.63500 6.74400 -1.40500
H 0.66500 6.97000 -2.70400
H 1.04800 6.46600 -1.03600
H 0.60800 0.50100 -4.89100
H -0.69200 -2.15600 -4.54700
H -1.26700 0.74000 -6.12900
H -2.20400 0.71400 -4.59600
H -1.96700 -0.72000 -5.45300
H 1.35600 -1.75900 -5.96700
H 1.45200 -3.15700 -4.90200
H 2.71400 -0.52200 -4.79800
H 3.48700 -2.12100 -4.52900
H 2.49500 -1.30300 -3.24000
H 0.86700 -6.33300 -0.08400
H 0.40400 -5.64200 -1.68000
H -0.89100 -5.99900 -0.46300
H -1.28300 -3.58100 4.02800
H 0.69800 -4.47800 7.75500
H 0.83300 -2.61900 7.68000
H 2.00000 -3.75400 6.97600
Mg 15.76938 1.42426 1.20656
C 14.63530 -0.90953 3.68574
C 13.74477 3.74194 2.67758
C 16.39916 3.36901 -1.22012
C 16.78171 -1.30940 -0.70341
N 14.41427 1.31091 2.95100
C 14.11141 0.38934 3.85284
C 13.26020 0.90880 5.04245
C 12.58900 2.17739 4.32201
C 13.66097 2.45687 3.27060
C 11.29131 1.84511 3.60443
C 14.14324 1.34297 6.26465
C 13.37239 1.56776 7.56734
H 14.01553 1.20704 8.82778
N 15.56053 3.39159 1.04979
C 14.70671 4.17677 1.73954
C 14.92724 5.54399 1.24331
C 15.86369 5.47854 0.08854
C 15.96334 4.04375 -0.08904
C 14.33929 6.75527 1.90705
C 16.54537 6.53305 -0.72971
O 17.12904 6.25413 -1.83621
C 16.42918 7.91613 -0.24487
N 16.29210 1.08126 -0.77623
C 16.56204 2.10361 -1.60681
C 17.17928 1.61203 -2.89435
C 17.49164 0.06171 -2.65658
C 16.89304 -0.10306 -1.24240
C 16.31901 1.77119 -4.14774
C 18.95221 -0.40737 -2.90025
C 19.86864 0.19731 -1.86106
N 15.90029 -0.71275 1.49652
C 16.32813 -1.67638 0.55713
C 16.13251 -3.00381 1.17527
C 15.57858 -2.71910 2.43248
C 15.42008 -1.31450 2.57900
C 16.40948 -4.25704 0.55978
C 15.08203 -3.28797 3.66476
O 15.04597 -4.41942 4.14671
C 14.33186 -2.14893 4.48099
C 14.81409 -2.20341 5.90472
O 15.99712 -1.93843 6.18191
O 13.75572 -2.34535 6.72330
C 14.18215 -2.39333 8.14726
H 12.97656 4.47657 2.92059
H 16.73336 4.00065 -2.04645
H 17.16368 -2.20627 -1.19576
H 12.49189 0.22548 5.38382
H 12.49744 3.01728 5.00579
H 11.09512 0.78322 3.59774
H 11.41097 2.21411 2.59420
H 10.46441 2.41517 4.03755
H 14.51967 2.35934 6.09131
H 14.93615 0.63987 6.43068
H 12.35719 1.15512 7.52202
H 13.21956 2.64166 7.69924
H 13.56225 6.48000 2.63082
H 13.80346 7.31551 1.13318
H 15.09866 7.40294 2.35039
H 15.37863 8.18975 -0.18210
H 17.05518 8.51290 -0.91109
H 16.82836 7.96424 0.77442
H 18.10788 2.13001 -3.10052
H 16.89963 -0.58042 -3.32518
H 16.81349 2.35778 -4.94491
H 15.38219 2.23119 -3.86260
H 15.98943 0.83887 -4.60310
H 19.30696 -0.05257 -3.87103
H 19.06678 -1.48614 -2.89014
H 20.08100 1.19073 -2.26739
H 20.77826 -0.39180 -1.76316
H 19.34542 0.33601 -0.90782
H 16.90205 -4.86768 1.30476
H 17.02691 -4.13621 -0.32789
H 15.39505 -4.58163 0.31312
H 13.26113 -2.34163 4.40377
H 13.78181 -3.32017 8.56961
H 13.83391 -1.44385 8.59555
H 15.24052 -2.50843 8.34989

