%nproc=24
%mem=175gb
#p cam-b3lyp/Def2SVP td=(nstates=5)

TDDFT excited states in gaussian

0 1
Mg 10.51725 0.94989 0.80608
C 10.37596 -1.76409 3.14989
C 9.26690 2.94768 3.27186
C 10.20511 3.25241 -1.35456
C 10.65556 -1.43317 -1.73313
N 9.93710 0.53012 2.89880
C 9.98530 -0.52473 3.69837
C 9.66988 -0.21835 5.18706
C 8.80058 1.11578 4.97904
C 9.39027 1.58722 3.65137
C 7.31969 0.84329 4.77398
C 10.96496 0.06497 6.02640
C 10.76086 0.06654 7.54300
H 11.83213 -0.45058 8.39001
N 10.30689 2.90952 1.03884
C 9.80216 3.55183 2.11306
C 9.84403 4.98449 1.78153
C 10.26137 5.12500 0.35998
C 10.25369 3.73668 -0.05546
C 9.58379 6.06190 2.79389
C 10.59772 6.31340 -0.48900
O 10.70361 6.22239 -1.76310
C 10.70745 7.60487 0.20494
N 10.22776 0.92187 -1.25250
C 10.17885 2.06462 -1.95936
C 10.24130 1.79127 -3.44320
C 10.58742 0.23588 -3.57933
C 10.57672 -0.15741 -2.08581
C 8.96807 2.09986 -4.23064
C 11.83066 -0.13638 -4.43282
C 13.08972 0.34361 -3.74742
N 10.70336 -1.19999 0.69914
C 10.71503 -1.99826 -0.46564
C 10.74400 -3.40854 -0.02666
C 10.72377 -3.33280 1.37418
C 10.66454 -1.97199 1.77940
C 10.73505 -4.54635 -0.88189
C 10.72832 -4.09492 2.60212
O 10.85624 -5.28541 2.88517
C 10.37565 -3.11746 3.80486
C 11.36807 -3.36199 4.90842
O 12.57198 -3.09573 4.74623
O 10.70417 -3.66278 6.03941
C 11.64535 -3.90303 7.16558
H 8.66786 3.60888 3.89864
H 10.20863 4.01079 -2.14090
H 10.79867 -2.23283 -2.46302
H 9.07786 -0.97314 5.69062
H 8.99791 1.84207 5.76321
H 7.11306 -0.21280 4.68385
H 7.04870 1.36090 3.86311
H 6.73620 1.31167 5.57179
H 11.26748 1.10936 5.87645
H 11.74513 -0.62418 5.76749
H 9.79793 -0.37332 7.82977
H 10.69404 1.10283 7.88308
H 9.13998 5.65397 3.71042
H 8.80339 6.70889 2.37886
H 10.46923 6.66591 3.00326
H 9.76848 7.82610 0.70678
H 11.04110 8.31639 -0.55288
H 11.46961 7.51797 0.98736
H 11.02969 2.36889 -3.90999
H 9.76965 -0.32320 -4.05738
H 9.12969 2.81554 -5.05875
H 8.22377 2.47700 -3.54193
H 8.46828 1.23264 -4.65881
H 11.79143 0.37035 -5.40020
H 11.91682 -1.19980 -4.62957
H 13.15058 1.39328 -4.05003
H 13.95376 -0.21842 -4.09612
H 12.97748 0.32082 -2.65722
H 11.46332 -5.24055 -0.48412
H 10.96510 -4.27307 -1.90959
H 9.69714 -4.86959 -0.76560
H 9.35397 -3.33737 4.11693
H 11.41870 -4.89640 7.56500
H 11.51750 -3.04362 7.85029
H 12.69727 -4.00625 6.92631

