%nproc=24
%mem=175gb
#p cam-b3lyp/Def2SVP td=(nstates=5)

TDDFT excited states in gaussian

0 1
Mg 8.94004 0.80009 0.68646
C 6.40894 0.15160 3.14656
C 10.44446 2.82254 2.98451
C 10.93292 1.74340 -1.59521
C 6.68657 -0.31877 -1.72512
N 8.40074 1.33689 2.76330
C 7.44979 0.98092 3.61379
C 7.66707 1.48025 5.06741
C 8.61059 2.74044 4.75027
C 9.22195 2.26308 3.43458
C 7.83577 4.01960 4.48058
C 8.40441 0.42072 5.95945
C 8.37530 0.71258 7.46135
H 8.28477 -0.41283 8.38748
N 10.71032 1.68803 0.81387
C 11.16583 2.45306 1.82803
C 12.51464 2.88587 1.43109
C 12.75347 2.44960 0.02847
C 11.43825 1.95071 -0.31998
C 13.46126 3.56788 2.37566
C 13.96175 2.48826 -0.85739
O 13.87936 2.27355 -2.11832
C 15.22897 2.87660 -0.22114
N 8.75867 0.92548 -1.38084
C 9.79423 1.31854 -2.14310
C 9.52025 1.06778 -3.60681
C 8.17861 0.19847 -3.65000
C 7.84584 0.17158 -2.14204
C 9.34679 2.31435 -4.47421
C 8.23842 -1.15039 -4.41789
C 9.14353 -2.11856 -3.69071
N 6.98633 -0.12242 0.69235
C 6.21110 -0.48552 -0.43071
C 4.91071 -0.96984 0.07608
C 5.01188 -0.83222 1.46868
C 6.27780 -0.28085 1.80472
C 3.81823 -1.41024 -0.72307
C 4.33158 -1.01809 2.73016
O 3.26744 -1.52960 3.07613
C 5.15746 -0.27141 3.86452
C 5.30193 -1.21206 5.02935
O 5.96504 -2.25829 4.91841
O 4.81957 -0.61938 6.13679
C 4.95086 -1.50908 7.32128
H 10.87307 3.65283 3.54647
H 11.62423 1.94961 -2.41561
H 5.96720 -0.77668 -2.40739
H 6.76739 1.80766 5.57451
H 9.38077 2.85787 5.50816
H 6.77161 3.84303 4.43024
H 8.20280 4.39161 3.53298
H 8.09356 4.78015 5.22317
H 9.48450 0.48760 5.77595
H 8.02222 -0.56450 5.77532
H 7.63639 1.48154 7.71758
H 9.33264 1.15489 7.74752
H 12.94914 3.90337 3.28592
H 13.78595 4.49425 1.88956
H 14.34034 2.96085 2.60237
H 15.12384 3.86526 0.21929
H 15.99168 2.75941 -0.99342
H 15.43277 2.18468 0.60368
H 10.32296 0.49785 -4.05840
H 7.35800 0.73986 -4.14328
H 10.05182 2.35502 -5.32588
H 9.46033 3.18681 -3.84457
H 8.34898 2.45507 -4.88624
H 8.67418 -1.00288 -5.40911
H 7.26616 -1.61069 -4.55878
H 10.14067 -1.83367 -4.03950
H 8.90724 -3.14442 -3.96605
H 9.11216 -1.94929 -2.60811
H 3.43073 -2.30520 -0.25470
H 4.12697 -1.59934 -1.74908
H 3.15809 -0.54213 -0.64643
H 4.60503 0.63006 4.13237
H 3.95155 -1.61293 7.75519
H 5.73035 -1.04785 7.95643
H 5.21280 -2.54546 7.14308

