%nproc=24
%mem=175gb
#p cam-b3lyp/Def2SVP td=(nstates=5)

TDDFT excited states in gaussian

0 1
Mg 31.52725 2.84596 2.40106
C 33.77744 3.30860 5.15818
C 29.19455 1.82384 4.67007
C 29.67468 2.00164 -0.03257
C 34.31692 2.79619 0.31277
N 31.59603 2.63695 4.60193
C 32.48466 2.90092 5.54799
C 31.93386 2.79500 6.99539
C 30.71266 1.79054 6.71506
C 30.45458 2.12327 5.24694
C 31.10436 0.32538 6.81103
C 31.42805 4.17492 7.54492
C 31.16495 4.20955 9.05201
H 31.45683 5.44050 9.78142
N 29.57362 2.50361 2.33262
C 28.77890 2.11762 3.35277
C 27.42961 1.98192 2.78254
C 27.52352 2.15944 1.30796
C 28.96201 2.20886 1.13948
C 26.20447 1.78881 3.62821
C 26.49006 2.25449 0.22670
O 26.80301 2.16872 -1.01327
C 25.09041 2.35722 0.66480
N 31.94314 2.24378 0.45510
C 30.95154 1.98581 -0.41559
C 31.48391 1.84068 -1.82126
C 33.01523 2.29624 -1.74988
C 33.13259 2.55216 -0.23128
C 31.39791 0.43852 -2.42371
C 33.46151 3.41956 -2.72541
C 32.79249 4.72290 -2.35245
N 33.64641 3.20066 2.62781
C 34.63960 3.10107 1.62894
C 35.94336 3.32121 2.28785
C 35.61749 3.51229 3.63907
C 34.21180 3.39785 3.81352
C 37.21530 3.27914 1.65027
C 36.14400 3.77423 4.95925
O 37.25427 4.04828 5.41305
C 34.98810 3.52850 6.02222
C 34.97070 4.69785 6.96817
O 34.66767 5.83397 6.56319
O 35.10108 4.24661 8.22903
C 35.07842 5.36869 9.20486
H 28.46756 1.27389 5.26833
H 29.07172 1.81657 -0.92457
H 35.22529 2.89362 -0.28560
H 32.61895 2.35676 7.71119
H 29.84649 2.04295 7.32120
H 32.16968 0.20050 6.93606
H 30.77641 -0.12808 5.88481
H 30.53491 -0.16582 7.60525
H 30.41188 4.35788 7.17254
H 32.10547 4.96269 7.27817
H 31.60177 3.34510 9.56666
H 30.09007 4.10592 9.21910
H 26.46578 1.53020 4.66176
H 25.69004 0.89981 3.24754
H 25.52155 2.63972 3.58084
H 24.83794 1.49189 1.27301
H 24.50888 2.50553 -0.24718
H 24.98974 3.23632 1.31107
H 30.95459 2.49336 -2.50457
H 33.69852 1.46626 -1.98242
H 30.83511 0.40626 -3.37570
H 30.94720 -0.21988 -1.69302
H 32.35604 -0.04388 -2.60945
H 33.14080 3.18633 -3.74369
H 34.53603 3.56685 -2.75198
H 31.81289 4.64390 -2.83332
H 33.35636 5.56812 -2.74193
H 32.62481 4.78382 -1.27086
H 37.78227 4.11830 2.03090
H 37.11884 3.32194 0.56739
H 37.57279 2.30422 1.99233
H 35.20785 2.59092 6.53429
H 35.99504 5.29467 9.79818
H 34.11864 5.27404 9.74671
H 35.16101 6.37562 8.81279

