%nproc=24
%mem=175gb
#p cam-b3lyp/Def2SVP td=(nstates=5)

TDDFT excited states in gaussian

0 1
Mg 8.93611 0.80913 0.68793
C 7.53431 -1.56689 2.98326
C 6.70960 3.08328 1.91491
C 9.83673 2.78890 -1.62223
C 10.21951 -1.88948 -1.10541
N 7.37484 0.65845 2.24741
C 6.97477 -0.27702 3.09546
C 5.97371 0.21787 4.17366
C 5.37972 1.48538 3.38659
C 6.57084 1.79071 2.48067
C 4.18717 1.14391 2.50877
C 6.69018 0.65010 5.50101
C 5.75894 0.85017 6.69873
H 6.24421 0.48402 8.02648
N 8.71997 2.77514 0.52462
C 7.77510 3.54122 1.10909
C 8.03618 4.91667 0.65728
C 9.11083 4.87648 -0.37142
C 9.25281 3.44520 -0.54851
C 7.35212 6.11260 1.25331
C 9.87428 5.94895 -1.08776
O 10.59604 5.69011 -2.11484
C 9.67813 7.32490 -0.60840
N 9.70817 0.49513 -1.21671
C 10.06519 1.53014 -1.99725
C 10.84602 1.06112 -3.20170
C 11.14863 -0.48747 -2.94114
C 10.37996 -0.67586 -1.61485
C 10.14741 1.22278 -4.55159
C 12.63489 -0.93441 -3.00398
C 13.40495 -0.32922 -1.85240
N 9.06072 -1.32905 0.97202
C 9.61689 -2.27643 0.08476
C 9.36467 -3.61312 0.66101
C 8.65345 -3.34976 1.84139
C 8.45743 -1.94910 1.98001
C 9.73480 -4.85566 0.07345
C 8.01469 -3.93882 2.99625
O 7.93497 -5.07593 3.45925
C 7.15165 -2.81896 3.72252
C 7.45237 -2.88286 5.19493
O 8.58734 -2.60532 5.62085
O 6.30192 -3.04790 5.87287
C 6.54716 -3.10604 7.33857
H 5.90638 3.80492 2.06646
H 10.26265 3.43405 -2.39414
H 10.67318 -2.77568 -1.55431
H 5.17868 -0.47933 4.40951
H 5.19097 2.31633 4.06131
H 4.00883 0.07965 2.46758
H 4.42712 1.52567 1.52504
H 3.30430 1.69811 2.84002
H 7.07055 1.67323 5.38580
H 7.46617 -0.04423 5.75864
H 4.76354 0.42464 6.52251
H 5.57518 1.92042 6.82045
H 6.49458 5.81903 1.87124
H 6.90942 6.67426 0.42359
H 8.04043 6.76531 1.79446
H 8.62413 7.58385 -0.67540
H 10.37396 7.93728 -1.18519
H 9.94568 7.36697 0.45332
H 11.78550 1.59362 -3.28486
H 10.65449 -1.12992 -3.68472
H 10.72932 1.82469 -5.27489
H 9.17565 1.66712 -4.38196
H 9.89110 0.29129 -5.05342
H 13.10332 -0.56417 -3.91922
H 12.76297 -2.01162 -2.98968
H 13.65210 0.67138 -2.21955
H 14.30359 -0.90727 -1.64665
H 12.76442 -0.20807 -0.97110
H 10.13894 -5.46795 0.86860
H 10.45679 -4.71679 -0.72856
H 8.76411 -5.19090 -0.30158
H 6.10195 -3.02497 3.50975
H 6.11056 -4.04274 7.69865
H 6.13170 -2.16630 7.74849
H 7.57335 -3.20934 7.67132

