%nproc=24
%mem=175gb
#p cam-b3lyp/Def2SVP td=(nstates=5)

TDDFT excited states in gaussian

0 1
Mg 0.00000 0.00000 0.00000
C -0.21700 -2.21800 2.80100
C -1.25500 2.44200 2.02600
C -0.24500 1.85000 -2.56400
C 0.14600 -2.82400 -2.03700
N -0.61700 -0.00900 2.12600
C -0.59400 -0.90800 3.10500
C -0.93600 -0.30900 4.50200
C -1.77300 0.96400 4.03200
C -1.15500 1.16800 2.66000
C -3.26300 0.68500 3.86300
C 0.34500 0.11000 5.29900
C 0.12400 0.39700 6.78700
H 1.16800 0.03300 7.73300
N -0.18500 1.96100 -0.15200
C -0.70300 2.80000 0.77700
C -0.62000 4.15600 0.19300
C -0.18700 4.01500 -1.22500
C -0.21400 2.58300 -1.38000
C -0.88700 5.40600 0.97400
C 0.18100 5.01300 -2.27700
O 0.30300 4.69000 -3.50800
C 0.31000 6.41400 -1.83700
N -0.26500 -0.41300 -2.02900
C -0.27900 0.56900 -2.93700
C -0.19600 0.02400 -4.33200
C 0.12400 -1.53300 -4.18000
C 0.08600 -1.63200 -2.63500
C -1.45100 0.20500 -5.19700
C 1.37300 -2.07000 -4.92300
C 2.62600 -1.49000 -4.30600
N 0.15000 -2.14400 0.30300
C 0.17300 -3.13600 -0.68800
C 0.17300 -4.43800 0.00400
C 0.13300 -4.11100 1.35800
C 0.08300 -2.69500 1.50200
C 0.14900 -5.71500 -0.62300
C 0.09600 -4.62900 2.71600
O 0.20800 -5.74700 3.22100
C -0.25500 -3.42800 3.70100
C 0.71700 -3.48200 4.84800
O 1.93100 -3.25500 4.66900
O 0.03800 -3.55600 6.00300
C 0.94300 -3.58300 7.18300
H -1.85900 3.22000 2.49700
H -0.21800 2.45300 -3.47400
H 0.27600 -3.74700 -2.60500
H -1.55400 -0.94900 5.13200
H -1.58500 1.83100 4.66500
H -3.48400 -0.37700 3.96900
H -3.51100 1.02700 2.85800
H -3.85200 1.30100 4.54300
H 0.66900 1.09600 4.96600
H 1.13000 -0.63900 5.18900
H -0.84400 0.02600 7.12500
H 0.06200 1.47700 6.92100
H -1.34400 5.18600 1.93800
H -1.65100 5.96300 0.43200
H 0.00700 6.02000 1.08400
H -0.63500 6.74400 -1.40500
H 0.66500 6.97000 -2.70400
H 1.04800 6.46600 -1.03600
H 0.60800 0.50100 -4.89100
H -0.69200 -2.15600 -4.54700
H -1.26700 0.74000 -6.12900
H -2.20400 0.71400 -4.59600
H -1.96700 -0.72000 -5.45300
H 1.35600 -1.75900 -5.96700
H 1.45200 -3.15700 -4.90200
H 2.71400 -0.52200 -4.79800
H 3.48700 -2.12100 -4.52900
H 2.49500 -1.30300 -3.24000
H 0.86700 -6.33300 -0.08400
H 0.40400 -5.64200 -1.68000
H -0.89100 -5.99900 -0.46300
H -1.28300 -3.58100 4.02800
H 0.69800 -4.47800 7.75500
H 0.83300 -2.61900 7.68000
H 2.00000 -3.75400 6.97600
Mg 31.52398 2.83832 2.40153
C 32.30175 5.35995 4.83370
C 31.40463 0.60385 4.97592
C 31.28404 0.52074 0.24776
C 32.80990 4.98134 -0.02737
N 31.83062 3.07250 4.57946
C 32.06052 4.08932 5.39650
C 31.95077 3.73988 6.90495
C 32.24040 2.16328 6.80824
C 31.76502 1.91471 5.37824
C 33.71791 1.81685 6.88742
C 30.52031 4.02675 7.48242
C 30.42648 4.00208 9.00962
H 29.51396 4.93422 9.66605
N 30.89199 0.96689 2.59373
C 30.89465 0.21840 3.71668
C 30.34822 -1.09117 3.32860
C 30.17647 -1.10840 1.85045
C 30.81086 0.14560 1.49673
C 29.96939 -2.14380 4.32954
C 29.55668 -2.09674 0.90958
O 29.73013 -2.01984 -0.35803
C 28.81818 -3.21077 1.52199
N 32.17112 2.67043 0.43293
C 31.89002 1.57627 -0.29627
C 32.21326 1.79509 -1.75504
C 32.54488 3.35352 -1.89253
C 32.43823 3.76685 -0.40822
C 33.37939 0.97617 -2.30812
C 31.73046 4.15629 -2.94370
C 30.28234 4.24266 -2.51841
N 32.23039 4.87934 2.34462
C 32.74966 5.57144 1.22863
C 33.20389 6.89274 1.70851
C 32.93635 6.86870 3.08558
C 32.37493 5.61296 3.44252
C 33.82012 7.89978 0.91337
C 33.01101 7.61613 4.32028
O 33.31736 8.76928 4.62050
C 32.72028 6.62569 5.52895
C 31.72355 7.28635 6.44140
O 30.56462 7.51442 6.05220
O 32.23374 7.34147 7.68519
C 31.27726 7.97871 8.62906
H 31.56625 -0.21651 5.67576
H 31.12303 -0.20320 -0.55440
H 33.13214 5.74354 -0.74003
H 32.69123 4.21588 7.53655
H 31.63123 1.60571 7.51491
H 34.33983 2.69960 6.87692
H 33.92216 1.19983 6.02220
H 33.91095 1.18598 7.75982
H 29.86061 3.18368 7.24001
H 30.13977 4.95875 7.11202
H 31.41493 4.03368 9.48388
H 30.01273 3.03836 9.31635
H 30.36337 -1.91117 5.32657
H 30.48988 -3.06294 4.03947
H 28.89486 -2.33776 4.35059
H 29.48314 -3.76758 2.17793
H 28.37368 -3.75947 0.68939
H 28.02450 -2.79838 2.15493
H 31.35989 1.56097 -2.37958
H 33.58972 3.52293 -2.19161
H 33.10077 0.35262 -3.17854
H 33.77322 0.36090 -1.51008
H 34.25161 1.55636 -2.60445
H 31.74092 3.63919 -3.90632
H 32.11144 5.15804 -3.11210
H 29.86573 3.29289 -2.86692
H 29.79224 5.08801 -2.99719
H 30.19338 4.26055 -1.42597
H 33.36843 8.84083 1.19779
H 33.69219 7.70142 -0.14873
H 34.86078 7.78815 1.22936
H 33.66955 6.43323 6.03038
H 31.80294 8.81467 9.10078
H 30.92579 7.16607 9.29226
H 30.41591 8.48222 8.20597

