%nproc=24
%mem=175gb
#p cam-b3lyp/Def2SVP td=(nstates=5)

TDDFT excited states in gaussian

0 1
Mg 0.00000 0.00000 0.00000
C -0.21700 -2.21800 2.80100
C -1.25500 2.44200 2.02600
C -0.24500 1.85000 -2.56400
C 0.14600 -2.82400 -2.03700
N -0.61700 -0.00900 2.12600
C -0.59400 -0.90800 3.10500
C -0.93600 -0.30900 4.50200
C -1.77300 0.96400 4.03200
C -1.15500 1.16800 2.66000
C -3.26300 0.68500 3.86300
C 0.34500 0.11000 5.29900
C 0.12400 0.39700 6.78700
H 1.16800 0.03300 7.73300
N -0.18500 1.96100 -0.15200
C -0.70300 2.80000 0.77700
C -0.62000 4.15600 0.19300
C -0.18700 4.01500 -1.22500
C -0.21400 2.58300 -1.38000
C -0.88700 5.40600 0.97400
C 0.18100 5.01300 -2.27700
O 0.30300 4.69000 -3.50800
C 0.31000 6.41400 -1.83700
N -0.26500 -0.41300 -2.02900
C -0.27900 0.56900 -2.93700
C -0.19600 0.02400 -4.33200
C 0.12400 -1.53300 -4.18000
C 0.08600 -1.63200 -2.63500
C -1.45100 0.20500 -5.19700
C 1.37300 -2.07000 -4.92300
C 2.62600 -1.49000 -4.30600
N 0.15000 -2.14400 0.30300
C 0.17300 -3.13600 -0.68800
C 0.17300 -4.43800 0.00400
C 0.13300 -4.11100 1.35800
C 0.08300 -2.69500 1.50200
C 0.14900 -5.71500 -0.62300
C 0.09600 -4.62900 2.71600
O 0.20800 -5.74700 3.22100
C -0.25500 -3.42800 3.70100
C 0.71700 -3.48200 4.84800
O 1.93100 -3.25500 4.66900
O 0.03800 -3.55600 6.00300
C 0.94300 -3.58300 7.18300
H -1.85900 3.22000 2.49700
H -0.21800 2.45300 -3.47400
H 0.27600 -3.74700 -2.60500
H -1.55400 -0.94900 5.13200
H -1.58500 1.83100 4.66500
H -3.48400 -0.37700 3.96900
H -3.51100 1.02700 2.85800
H -3.85200 1.30100 4.54300
H 0.66900 1.09600 4.96600
H 1.13000 -0.63900 5.18900
H -0.84400 0.02600 7.12500
H 0.06200 1.47700 6.92100
H -1.34400 5.18600 1.93800
H -1.65100 5.96300 0.43200
H 0.00700 6.02000 1.08400
H -0.63500 6.74400 -1.40500
H 0.66500 6.97000 -2.70400
H 1.04800 6.46600 -1.03600
H 0.60800 0.50100 -4.89100
H -0.69200 -2.15600 -4.54700
H -1.26700 0.74000 -6.12900
H -2.20400 0.71400 -4.59600
H -1.96700 -0.72000 -5.45300
H 1.35600 -1.75900 -5.96700
H 1.45200 -3.15700 -4.90200
H 2.71400 -0.52200 -4.79800
H 3.48700 -2.12100 -4.52900
H 2.49500 -1.30300 -3.24000
H 0.86700 -6.33300 -0.08400
H 0.40400 -5.64200 -1.68000
H -0.89100 -5.99900 -0.46300
H -1.28300 -3.58100 4.02800
H 0.69800 -4.47800 7.75500
H 0.83300 -2.61900 7.68000
H 2.00000 -3.75400 6.97600
Mg 31.53946 2.83670 2.40309
C 31.66655 -0.74625 2.24381
C 30.44202 2.50591 5.61569
C 30.98708 5.96104 2.43106
C 31.53363 2.85282 -1.08193
N 31.14549 1.05721 3.65628
C 31.28844 -0.25135 3.50933
C 31.08844 -1.07057 4.81257
C 30.16856 -0.02647 5.61415
C 30.63364 1.26835 4.95098
C 28.68387 -0.19757 5.33888
C 32.43999 -1.33938 5.56295
C 32.36158 -2.39044 6.67240
H 33.51283 -3.26270 6.88745
N 31.29513 4.08408 3.92720
C 30.86314 3.77750 5.16844
C 30.83809 5.04732 5.91079
C 31.13285 6.15289 4.95918
C 31.12919 5.42840 3.70411
C 30.63259 5.11761 7.39614
C 31.36526 7.62162 5.14629
O 31.36827 8.43449 4.15529
C 31.49620 8.09327 6.53261
N 31.08222 4.20118 0.90261
C 30.94378 5.51013 1.17722
C 30.89125 6.33065 -0.08942
C 31.26767 5.32107 -1.27122
C 31.39090 4.01396 -0.45779
C 29.54946 6.99534 -0.39629
C 32.44613 5.72939 -2.19705
C 33.74369 5.70583 -1.42170
N 31.77524 1.36336 0.84049
C 31.71287 1.58086 -0.55338
C 31.81672 0.25926 -1.20532
C 31.90991 -0.64475 -0.13641
C 31.84683 0.06162 1.09508
C 31.76867 0.01711 -2.60717
C 32.03660 -2.03693 0.23030
O 32.22014 -3.08481 -0.38775
C 31.75746 -2.17641 1.78883
C 32.84379 -3.03216 2.38052
O 34.02246 -2.63581 2.39650
O 32.28387 -4.07437 3.02135
C 33.32091 -4.94641 3.63448
H 29.87868 2.51163 6.54924
H 30.90491 7.04929 2.38174
H 31.63807 2.78214 -2.16672
H 30.56093 -2.00803 4.68338
H 30.40976 -0.02008 6.67394
H 28.49968 -0.91845 4.55623
H 28.32460 0.78000 5.04504
H 28.15543 -0.44752 6.26334
H 32.70025 -0.45556 6.15950
H 33.21485 -1.60295 4.86959
H 31.43803 -2.97950 6.61760
H 32.29450 -1.87570 7.63394
H 30.27720 4.16106 7.79876
H 29.80313 5.81118 7.57172
H 31.51531 5.48080 7.92676
H 30.59603 7.83895 7.08713
H 31.74656 9.15330 6.45824
H 32.32234 7.55379 7.00914
H 31.62230 7.12939 -0.06337
H 30.42899 5.17931 -1.96862
H 29.62254 8.09325 -0.51173
H 28.85434 6.74140 0.39293
H 29.04015 6.62015 -1.28231
H 32.31339 6.75544 -2.54887
H 32.54503 5.09849 -3.07408
H 33.75049 6.67932 -0.92234
H 34.59121 5.60232 -2.09627
H 33.72234 4.93556 -0.64203
H 32.54607 -0.70292 -2.82558
H 31.90564 0.93553 -3.17420
H 30.75316 -0.37651 -2.70240
H 30.77141 -2.62759 1.90595
H 33.15537 -5.95789 3.25083
H 33.22631 -4.80030 4.72694
H 34.35198 -4.77724 3.34688

