%nproc=24
%mem=175gb
#p cam-b3lyp/Def2SVP td=(nstates=5)

TDDFT excited states in gaussian

0 1
Mg 10.51566 0.95118 0.80651
C 9.82202 -1.32356 3.49417
C 8.84823 3.33270 2.59051
C 10.71638 2.84892 -1.72839
C 11.09857 -1.82954 -1.21179
N 9.51002 0.89125 2.77561
C 9.36401 -0.01126 3.73400
C 8.76135 0.54281 5.05285
C 7.99154 1.81629 4.44909
C 8.85238 2.05783 3.21083
C 6.57607 1.50339 3.99315
C 9.86626 0.97351 6.08032
C 9.35804 1.23272 7.50027
H 10.21918 0.87463 8.62396
N 10.31918 2.92040 0.65770
C 9.62529 3.73349 1.48152
C 9.77518 5.08873 0.92923
C 10.47687 4.98709 -0.37921
C 10.51367 3.54820 -0.54752
C 9.34576 6.32152 1.67035
C 11.01316 6.01518 -1.32875
O 11.37333 5.70863 -2.52002
C 11.01677 7.40685 -0.85468
N 10.65031 0.57023 -1.23287
C 10.77932 1.57516 -2.11684
C 11.13437 1.05286 -3.48853
C 11.45576 -0.50071 -3.28675
C 11.13009 -0.63326 -1.78284
C 10.05743 1.21438 -4.56114
C 12.83532 -1.00535 -3.79156
C 13.94199 -0.40739 -2.95304
N 10.65732 -1.18416 1.10367
C 10.88257 -2.16951 0.11755
C 10.78079 -3.48390 0.78421
C 10.47822 -3.17020 2.11783
C 10.37722 -1.76060 2.26717
C 10.91307 -4.75107 0.14947
C 10.21081 -3.71142 3.43095
O 10.24396 -4.83525 3.93058
C 9.64930 -2.54520 4.35346
C 10.38897 -2.59140 5.66238
O 11.60790 -2.34911 5.70844
O 9.50046 -2.69885 6.66705
C 10.18550 -2.73730 7.98654
H 8.15362 4.08740 2.96040
H 10.90174 3.46190 -2.61348
H 11.36395 -2.74116 -1.75141
H 8.05767 -0.11865 5.54385
H 8.04617 2.66705 5.12332
H 6.36162 0.44613 4.04167
H 6.51115 1.85614 2.97217
H 5.85630 2.09742 4.56359
H 10.22306 1.97885 5.82201
H 10.66250 0.25523 6.10699
H 8.34459 0.84219 7.65305
H 9.25347 2.31142 7.63990
H 8.71316 6.07327 2.53151
H 8.68517 6.88317 1.00099
H 10.18720 6.95801 1.95233
H 10.00215 7.70456 -0.60097
H 11.51806 7.98062 -1.63658
H 11.60099 7.45966 0.07080
H 12.01762 1.54727 -3.87391
H 10.73651 -1.13838 -3.82143
H 10.40478 1.77915 -5.44684
H 9.19983 1.69885 -4.11354
H 9.63029 0.28362 -4.93054
H 13.00839 -0.67149 -4.81760
H 12.92888 -2.08617 -3.78447
H 14.09350 0.57556 -3.40904
H 14.84225 -1.01522 -3.01710
H 13.60971 -0.24440 -1.92120
H 11.52478 -5.36252 0.79943
H 11.35518 -4.65584 -0.84009
H 9.86429 -5.05629 0.10285
H 8.57957 -2.71506 4.48152
H 9.85368 -3.64930 8.49234
H 9.94599 -1.77442 8.47567
H 11.26067 -2.87318 7.98929

