%nproc=24
%mem=175gb
#p cam-b3lyp/Def2SVP td=(nstates=5)

TDDFT excited states in gaussian

0 1
Mg 13.14652 1.17584 0.99767
C 13.26887 0.48009 -2.52085
C 12.52546 -2.14314 1.48060
C 12.58692 1.82669 4.05229
C 12.63830 4.52449 0.17670
N 12.94703 -0.51322 -0.41638
C 13.07443 -0.66846 -1.72558
C 13.06886 -2.14593 -2.20163
C 12.26845 -2.79277 -0.96882
C 12.62601 -1.77730 0.11452
C 10.76054 -2.77950 -1.15694
C 14.51591 -2.74049 -2.32232
C 14.60397 -4.07083 -3.07344
H 15.77894 -4.32572 -3.90227
N 13.11765 -0.02007 2.58119
C 12.87077 -1.34677 2.59455
C 12.94606 -1.75582 4.00564
C 13.09454 -0.53328 4.84114
C 12.91395 0.49582 3.83693
C 12.95644 -3.19374 4.43657
C 13.34348 -0.32485 6.30428
O 13.19917 0.82352 6.85496
C 13.67031 -1.52314 7.09090
N 12.47033 2.88176 1.97489
C 12.36579 2.91518 3.31499
C 12.12675 4.32218 3.80856
C 12.33438 5.26565 2.53406
C 12.58071 4.18602 1.45744
C 10.75113 4.58811 4.41959
C 13.36483 6.41956 2.67304
C 14.76071 5.85272 2.79789
N 13.16263 2.35285 -0.81408
C 12.89880 3.73475 -0.93588
C 12.91480 4.05561 -2.37783
C 13.16602 2.82397 -3.00109
C 13.27727 1.80370 -2.01814
C 12.66649 5.33600 -2.94795
C 13.35185 2.15310 -4.26761
O 13.45009 2.51888 -5.43821
C 13.30105 0.58379 -4.02046
C 14.46597 -0.03783 -4.74091
O 15.63246 0.20909 -4.38742
O 14.00997 -0.98415 -5.58170
C 15.12930 -1.63726 -6.31135
H 12.10256 -3.11747 1.72700
H 12.49256 2.12565 5.09880
H 12.58567 5.56352 -0.15544
H 12.53336 -2.32313 -3.12663
H 12.65986 -3.77455 -0.71530
H 10.46939 -2.22853 -2.03887
H 10.35735 -2.31169 -0.26832
H 10.37226 -3.80202 -1.16184
H 14.85462 -3.06266 -1.32923
H 15.18415 -2.02924 -2.76751
H 13.68540 -4.29109 -3.63081
H 14.67340 -4.87887 -2.34114
H 12.66803 -3.86179 3.61564
H 12.15719 -3.31165 5.17627
H 13.90444 -3.49067 4.89022
H 12.86089 -2.24406 7.00396
H 13.90155 -1.16001 8.09417
H 14.55944 -1.99444 6.65739
H 12.84955 4.59357 4.56817
H 11.40472 5.78246 2.25391
H 10.80081 4.97480 5.45500
H 10.17843 3.67092 4.38328
H 10.12147 5.27602 3.85789
H 13.17717 6.98672 3.58806
H 13.33971 7.12286 1.84736
H 14.83411 5.60976 3.86216
H 15.50269 6.59491 2.51038
H 14.85617 4.91493 2.23835
H 13.40820 5.48127 -3.72207
H 12.71528 6.12182 -2.19703
H 11.65002 5.18886 -3.32266
H 12.34465 0.22303 -4.40090
H 14.91570 -1.53697 -7.37999
H 15.19236 -2.66401 -5.90446
H 16.10720 -1.17468 -6.24680

