%nproc=24
%mem=175gb
#p cam-b3lyp/Def2SVP td=(nstates=5)

TDDFT excited states in gaussian

0 1
Mg 0.00000 0.00000 0.00000
C -0.21700 -2.21800 2.80100
C -1.25500 2.44200 2.02600
C -0.24500 1.85000 -2.56400
C 0.14600 -2.82400 -2.03700
N -0.61700 -0.00900 2.12600
C -0.59400 -0.90800 3.10500
C -0.93600 -0.30900 4.50200
C -1.77300 0.96400 4.03200
C -1.15500 1.16800 2.66000
C -3.26300 0.68500 3.86300
C 0.34500 0.11000 5.29900
C 0.12400 0.39700 6.78700
H 1.16800 0.03300 7.73300
N -0.18500 1.96100 -0.15200
C -0.70300 2.80000 0.77700
C -0.62000 4.15600 0.19300
C -0.18700 4.01500 -1.22500
C -0.21400 2.58300 -1.38000
C -0.88700 5.40600 0.97400
C 0.18100 5.01300 -2.27700
O 0.30300 4.69000 -3.50800
C 0.31000 6.41400 -1.83700
N -0.26500 -0.41300 -2.02900
C -0.27900 0.56900 -2.93700
C -0.19600 0.02400 -4.33200
C 0.12400 -1.53300 -4.18000
C 0.08600 -1.63200 -2.63500
C -1.45100 0.20500 -5.19700
C 1.37300 -2.07000 -4.92300
C 2.62600 -1.49000 -4.30600
N 0.15000 -2.14400 0.30300
C 0.17300 -3.13600 -0.68800
C 0.17300 -4.43800 0.00400
C 0.13300 -4.11100 1.35800
C 0.08300 -2.69500 1.50200
C 0.14900 -5.71500 -0.62300
C 0.09600 -4.62900 2.71600
O 0.20800 -5.74700 3.22100
C -0.25500 -3.42800 3.70100
C 0.71700 -3.48200 4.84800
O 1.93100 -3.25500 4.66900
O 0.03800 -3.55600 6.00300
C 0.94300 -3.58300 7.18300
H -1.85900 3.22000 2.49700
H -0.21800 2.45300 -3.47400
H 0.27600 -3.74700 -2.60500
H -1.55400 -0.94900 5.13200
H -1.58500 1.83100 4.66500
H -3.48400 -0.37700 3.96900
H -3.51100 1.02700 2.85800
H -3.85200 1.30100 4.54300
H 0.66900 1.09600 4.96600
H 1.13000 -0.63900 5.18900
H -0.84400 0.02600 7.12500
H 0.06200 1.47700 6.92100
H -1.34400 5.18600 1.93800
H -1.65100 5.96300 0.43200
H 0.00700 6.02000 1.08400
H -0.63500 6.74400 -1.40500
H 0.66500 6.97000 -2.70400
H 1.04800 6.46600 -1.03600
H 0.60800 0.50100 -4.89100
H -0.69200 -2.15600 -4.54700
H -1.26700 0.74000 -6.12900
H -2.20400 0.71400 -4.59600
H -1.96700 -0.72000 -5.45300
H 1.35600 -1.75900 -5.96700
H 1.45200 -3.15700 -4.90200
H 2.71400 -0.52200 -4.79800
H 3.48700 -2.12100 -4.52900
H 2.49500 -1.30300 -3.24000
H 0.86700 -6.33300 -0.08400
H 0.40400 -5.64200 -1.68000
H -0.89100 -5.99900 -0.46300
H -1.28300 -3.58100 4.02800
H 0.69800 -4.47800 7.75500
H 0.83300 -2.61900 7.68000
H 2.00000 -3.75400 6.97600
Mg 13.14576 1.18853 0.99274
C 12.54163 4.46227 2.33316
C 12.38058 2.46680 -2.07567
C 13.23000 -1.76997 -0.15077
C 12.74337 -0.05659 4.22283
N 12.55365 3.21749 0.34082
C 12.41679 4.39593 0.92979
C 12.20941 5.58349 -0.04809
C 11.61270 4.76661 -1.29529
C 12.24576 3.40411 -1.02050
C 10.10195 4.61022 -1.24496
C 13.55795 6.29452 -0.41940
C 13.40078 7.64578 -1.12022
H 14.37341 8.69636 -0.83254
N 13.32984 0.53757 -0.87299
C 12.99103 1.19550 -2.00153
C 13.30330 0.28015 -3.11003
C 13.69999 -1.03412 -2.53553
C 13.40893 -0.80783 -1.13404
C 13.28762 0.70906 -4.54851
C 14.23856 -2.29147 -3.14808
O 14.28875 -3.39184 -2.49273
C 14.61851 -2.21915 -4.56649
N 12.79869 -0.66877 1.86012
C 12.95467 -1.80188 1.15326
C 12.92068 -3.01470 2.05232
C 12.95156 -2.44343 3.54573
C 12.90600 -0.93043 3.23890
C 11.71093 -3.93373 1.88417
C 14.07336 -2.97482 4.47945
C 15.42078 -2.48953 3.99537
N 12.90420 2.03348 2.96651
C 12.72660 1.33164 4.17893
C 12.49116 2.33828 5.23424
C 12.52551 3.56446 4.55322
C 12.74530 3.33682 3.16781
C 12.23557 2.06052 6.60670
C 12.41521 4.99901 4.68963
O 12.31544 5.77630 5.63810
C 12.29470 5.63682 3.23875
C 13.25062 6.79549 3.15985
O 14.47832 6.60742 3.22290
O 12.57270 7.90275 2.80662
C 13.47986 9.07682 2.70445
H 11.94046 2.70833 -3.04357
H 13.35987 -2.80515 -0.47484
H 12.70656 -0.35864 5.27168
H 11.49542 6.32706 0.28524
H 11.97037 5.16986 -2.23912
H 9.69008 4.97339 -0.31512
H 9.91210 3.55050 -1.35454
H 9.64413 5.08994 -2.11478
H 14.05479 5.72626 -1.21625
H 14.18048 6.40700 0.44688
H 12.37880 8.03562 -1.03941
H 13.54776 7.49944 -2.19307
H 12.79844 1.68309 -4.67252
H 12.63768 0.00856 -5.08398
H 14.27972 0.68985 -5.00461
H 13.75551 -1.92032 -5.15674
H 15.06362 -3.18839 -4.79958
H 15.37056 -1.43150 -4.68751
H 13.79349 -3.63665 1.89586
H 12.02705 -2.68124 4.09214
H 11.98625 -4.97843 1.64567
H 11.07453 -3.52244 1.11192
H 11.03917 -3.97412 2.73992
H 14.10697 -4.06662 4.44772
H 13.94405 -2.68664 5.51735
H 15.67749 -3.21206 3.21491
H 16.14789 -2.50772 4.80470
H 15.33692 -1.50575 3.51913
H 12.82468 2.76275 7.18143
H 12.48572 1.03176 6.85743
H 11.15814 2.24200 6.64505
H 11.25891 5.95071 3.10388
H 13.07438 9.85204 3.36195
H 13.54207 9.31330 1.62558
H 14.48406 8.97000 3.09766

