%nproc=24
%mem=175gb
#p cam-b3lyp/Def2SVP td=(nstates=5)

TDDFT excited states in gaussian

0 1
Mg 31.52450 2.83635 2.40176
C 31.70117 5.53022 4.76627
C 32.02158 0.70535 5.01832
C 31.82367 0.48061 0.29738
C 32.18281 5.17259 -0.09909
N 31.80993 3.19203 4.56608
C 31.79658 4.25352 5.35818
C 31.80996 3.92431 6.87509
C 32.48140 2.46751 6.79907
C 32.05232 2.07398 5.38709
C 33.99998 2.50163 6.84473
C 30.36593 3.86010 7.48555
C 30.31415 3.84977 9.01492
H 29.21240 4.54112 9.67873
N 31.38341 0.87174 2.64461
C 31.59681 0.17481 3.78040
C 31.38594 -1.23852 3.43084
C 31.19210 -1.33366 1.95840
C 31.48600 0.02982 1.56518
C 31.30320 -2.32780 4.46043
C 30.81820 -2.46758 1.05251
O 30.93964 -2.38060 -0.22049
C 30.39418 -3.71519 1.70455
N 32.15049 2.78724 0.41983
C 32.13545 1.64026 -0.28169
C 32.36241 1.89731 -1.75234
C 32.29192 3.48545 -1.92678
C 32.11759 3.89498 -0.44784
C 33.68370 1.38119 -2.32172
C 31.28061 4.03467 -2.96998
C 29.86620 3.76825 -2.50753
N 31.69829 4.98696 2.28908
C 32.00441 5.75932 1.14723
C 32.12507 7.16328 1.59081
C 31.90171 7.10672 2.97479
C 31.67897 5.75978 3.36929
C 32.45346 8.27246 0.76135
C 31.81423 7.87884 4.19335
O 31.82977 9.07885 4.46437
C 31.80577 6.87671 5.42706
C 30.69568 7.29043 6.35392
O 29.50838 7.21349 5.99197
O 31.20270 7.50081 7.58235
C 30.13810 7.90263 8.53995
H 32.39769 -0.03183 5.72824
H 31.83101 -0.27979 -0.48697
H 32.28939 5.97355 -0.83379
H 32.42177 4.58471 7.47786
H 32.04587 1.79314 7.53181
H 34.38177 3.51085 6.80159
H 34.33293 1.93412 5.98560
H 34.36297 1.95992 7.72286
H 29.93222 2.87379 7.27621
H 29.75713 4.65886 7.10876
H 31.27348 4.13778 9.46178
H 30.16048 2.82112 9.34999
H 31.64812 -1.98043 5.44214
H 32.03006 -3.09525 4.17309
H 30.31169 -2.78246 4.51386
H 31.19095 -4.07301 2.35231
H 30.08270 -4.37719 0.89424
H 29.53657 -3.49809 2.35107
H 31.58112 1.44318 -2.34938
H 33.25482 3.90223 -2.25686
H 33.55068 0.68707 -3.17295
H 34.23561 0.90273 -1.52359
H 34.37711 2.15282 -2.65182
H 31.39893 3.51332 -3.92305
H 31.39606 5.09533 -3.16661
H 29.69216 2.73655 -2.82753
H 29.17060 4.45323 -2.98813
H 29.79915 3.78984 -1.41360
H 31.78762 9.07811 1.04079
H 32.35617 8.02290 -0.29317
H 33.49564 8.43096 1.05121
H 32.78361 6.93868 5.90618
H 30.44877 8.85425 8.98221
H 30.01473 7.04436 9.22691
H 29.16950 8.16560 8.13117

