%nproc=24
%mem=175gb
#p cam-b3lyp/Def2SVP td=(nstates=5)

TDDFT excited states in gaussian

0 1
Mg 0.00000 0.00000 0.00000
C -0.21700 -2.21800 2.80100
C -1.25500 2.44200 2.02600
C -0.24500 1.85000 -2.56400
C 0.14600 -2.82400 -2.03700
N -0.61700 -0.00900 2.12600
C -0.59400 -0.90800 3.10500
C -0.93600 -0.30900 4.50200
C -1.77300 0.96400 4.03200
C -1.15500 1.16800 2.66000
C -3.26300 0.68500 3.86300
C 0.34500 0.11000 5.29900
C 0.12400 0.39700 6.78700
H 1.16800 0.03300 7.73300
N -0.18500 1.96100 -0.15200
C -0.70300 2.80000 0.77700
C -0.62000 4.15600 0.19300
C -0.18700 4.01500 -1.22500
C -0.21400 2.58300 -1.38000
C -0.88700 5.40600 0.97400
C 0.18100 5.01300 -2.27700
O 0.30300 4.69000 -3.50800
C 0.31000 6.41400 -1.83700
N -0.26500 -0.41300 -2.02900
C -0.27900 0.56900 -2.93700
C -0.19600 0.02400 -4.33200
C 0.12400 -1.53300 -4.18000
C 0.08600 -1.63200 -2.63500
C -1.45100 0.20500 -5.19700
C 1.37300 -2.07000 -4.92300
C 2.62600 -1.49000 -4.30600
N 0.15000 -2.14400 0.30300
C 0.17300 -3.13600 -0.68800
C 0.17300 -4.43800 0.00400
C 0.13300 -4.11100 1.35800
C 0.08300 -2.69500 1.50200
C 0.14900 -5.71500 -0.62300
C 0.09600 -4.62900 2.71600
O 0.20800 -5.74700 3.22100
C -0.25500 -3.42800 3.70100
C 0.71700 -3.48200 4.84800
O 1.93100 -3.25500 4.66900
O 0.03800 -3.55600 6.00300
C 0.94300 -3.58300 7.18300
H -1.85900 3.22000 2.49700
H -0.21800 2.45300 -3.47400
H 0.27600 -3.74700 -2.60500
H -1.55400 -0.94900 5.13200
H -1.58500 1.83100 4.66500
H -3.48400 -0.37700 3.96900
H -3.51100 1.02700 2.85800
H -3.85200 1.30100 4.54300
H 0.66900 1.09600 4.96600
H 1.13000 -0.63900 5.18900
H -0.84400 0.02600 7.12500
H 0.06200 1.47700 6.92100
H -1.34400 5.18600 1.93800
H -1.65100 5.96300 0.43200
H 0.00700 6.02000 1.08400
H -0.63500 6.74400 -1.40500
H 0.66500 6.97000 -2.70400
H 1.04800 6.46600 -1.03600
H 0.60800 0.50100 -4.89100
H -0.69200 -2.15600 -4.54700
H -1.26700 0.74000 -6.12900
H -2.20400 0.71400 -4.59600
H -1.96700 -0.72000 -5.45300
H 1.35600 -1.75900 -5.96700
H 1.45200 -3.15700 -4.90200
H 2.71400 -0.52200 -4.79800
H 3.48700 -2.12100 -4.52900
H 2.49500 -1.30300 -3.24000
H 0.86700 -6.33300 -0.08400
H 0.40400 -5.64200 -1.68000
H -0.89100 -5.99900 -0.46300
H -1.28300 -3.58100 4.02800
H 0.69800 -4.47800 7.75500
H 0.83300 -2.61900 7.68000
H 2.00000 -3.75400 6.97600
Mg 15.76663 1.42191 1.18737
C 18.07364 -1.04115 -0.03331
C 17.95169 3.79792 0.08524
C 13.97962 3.60015 2.64659
C 14.35997 -1.07809 3.16652
N 17.72603 1.27316 0.17205
C 18.47409 0.28548 -0.29620
C 19.67910 0.74515 -1.16003
C 19.84835 2.22791 -0.56703
C 18.41366 2.47080 -0.10297
C 20.76007 2.29005 0.64715
C 19.33992 0.77433 -2.69173
C 20.55142 0.91404 -3.61613
H 20.53183 0.21730 -4.89934
N 15.67511 3.38799 0.93294
C 16.64637 4.19241 0.45249
C 16.09194 5.55471 0.48249
C 14.77464 5.50992 1.17345
C 14.76807 4.13783 1.63971
C 16.76557 6.72211 -0.17845
C 13.70437 6.53627 1.39102
O 12.74918 6.34678 2.22441
C 13.85882 7.80768 0.66912
N 14.51058 1.33690 2.84190
C 13.81076 2.41572 3.23475
C 12.77354 2.04639 4.26827
C 12.75944 0.44777 4.31058
C 13.90410 0.15816 3.31496
C 13.01429 2.59040 5.67627
C 11.39010 -0.25015 4.08588
C 10.92628 -0.03092 2.66384
N 16.00231 -0.71586 1.39336
C 15.33209 -1.56430 2.30167
C 15.91015 -2.91461 2.14375
C 16.90025 -2.75194 1.16307
C 16.95043 -1.39187 0.75418
C 15.54210 -4.06956 2.88992
C 17.92158 -3.41940 0.38842
O 18.27761 -4.58824 0.24425
C 18.81284 -2.31646 -0.32961
C 18.97277 -2.71484 -1.77122
O 17.98962 -2.74172 -2.53233
O 20.28369 -2.78679 -2.06566
C 20.49342 -3.16792 -3.48783
H 18.66609 4.61532 -0.01664
H 13.26625 4.28873 3.10532
H 13.90905 -1.93177 3.67698
H 20.58952 0.17782 -1.00820
H 20.12239 2.93560 -1.34513
H 21.05079 1.30591 0.98346
H 20.19314 2.80009 1.41493
H 21.62426 2.92686 0.43745
H 18.81676 1.71066 -2.92484
H 18.76918 -0.08953 -2.97211
H 21.49512 0.72457 -3.09032
H 20.62662 1.95665 -3.93446
H 17.79759 6.48271 -0.46307
H 16.86788 7.50444 0.58140
H 16.19216 7.11871 -1.01903
H 14.80413 8.26797 0.94656
H 12.95191 8.37683 0.88233
H 13.91503 7.59583 -0.40446
H 11.79239 2.39883 3.97459
H 13.08771 0.06312 5.28737
H 12.17312 3.19876 6.05889
H 13.92855 3.16883 5.66701
H 13.22552 1.83654 6.43276
H 10.62863 0.19283 4.73248
H 11.40882 -1.31490 4.29311
H 10.45737 0.95670 2.70669
H 10.20939 -0.79591 2.37248
H 11.77870 0.03838 1.97810
H 15.47241 -4.88684 2.18445
H 14.60331 -3.91871 3.41878
H 16.39208 -4.13882 3.57402
H 19.76945 -2.27724 0.19283
H 21.13153 -4.05702 -3.48957
H 20.88986 -2.26240 -3.98445
H 19.63362 -3.52360 -4.04343

