%nproc=24
%mem=175gb
#p cam-b3lyp/Def2SVP td=(nstates=5)

TDDFT excited states in gaussian

0 1
Mg 7.88953 0.71332 0.60647
C 7.74825 -2.00065 2.95028
C 6.63919 2.71111 3.07225
C 7.57740 3.01584 -1.55417
C 8.02785 -1.66974 -1.93274
N 7.30938 0.29356 2.69919
C 7.35758 -0.76130 3.49876
C 7.04216 -0.45492 4.98745
C 6.17286 0.87922 4.77943
C 6.76255 1.35065 3.45176
C 4.69197 0.60672 4.57437
C 8.33725 -0.17159 5.82679
C 8.13314 -0.17003 7.34339
H 9.20442 -0.68715 8.19040
N 7.67918 2.67295 0.83923
C 7.17445 3.31526 1.91345
C 7.21631 4.74792 1.58192
C 7.63365 4.88843 0.16037
C 7.62598 3.50011 -0.25507
C 6.95608 5.82534 2.59428
C 7.97001 6.07683 -0.68861
O 8.07590 5.98583 -1.96271
C 8.07974 7.36830 0.00533
N 7.60005 0.68530 -1.45211
C 7.55113 1.82805 -2.15897
C 7.61358 1.55470 -3.64281
C 7.95970 -0.00069 -3.77894
C 7.94901 -0.39398 -2.28542
C 6.34036 1.86330 -4.43025
C 9.20295 -0.37295 -4.63243
C 10.46200 0.10705 -3.94704
N 8.07565 -1.43656 0.49953
C 8.08732 -2.23483 -0.66525
C 8.11629 -3.64510 -0.22627
C 8.09606 -3.56936 1.17457
C 8.03683 -2.20856 1.57979
C 8.10734 -4.78292 -1.08150
C 8.10061 -4.33149 2.40251
O 8.22853 -5.52198 2.68556
C 7.74794 -3.35403 3.60525
C 8.74036 -3.59856 4.70881
O 9.94427 -3.33230 4.54662
O 8.07645 -3.89934 5.83979
C 9.01763 -4.13960 6.96597
H 6.04015 3.37231 3.69903
H 7.58092 3.77422 -2.34051
H 8.17096 -2.46940 -2.66263
H 6.45015 -1.20971 5.49101
H 6.37019 1.60550 5.56360
H 4.48535 -0.44937 4.48424
H 4.42099 1.12433 3.66350
H 4.10849 1.07510 5.37218
H 8.63976 0.87279 5.67684
H 9.11742 -0.86075 5.56788
H 7.17022 -0.60989 7.63016
H 8.06632 0.86626 7.68347
H 6.51226 5.41741 3.51081
H 6.17568 6.47232 2.17925
H 7.84152 6.42934 2.80365
H 7.14076 7.58954 0.50717
H 8.41339 8.07982 -0.75249
H 8.84189 7.28140 0.78775
H 8.40198 2.13232 -4.10960
H 7.14194 -0.55977 -4.25699
H 6.50198 2.57897 -5.25836
H 5.59606 2.24044 -3.74154
H 5.84056 0.99607 -4.85842
H 9.16372 0.13379 -5.59981
H 9.28910 -1.43637 -4.82918
H 10.52287 1.15672 -4.24965
H 11.32605 -0.45499 -4.29573
H 10.34977 0.08426 -2.85684
H 8.83561 -5.47711 -0.68373
H 8.33739 -4.50964 -2.10920
H 7.06943 -5.10616 -0.96521
H 6.72625 -3.57393 3.91732
H 8.79098 -5.13297 7.36539
H 8.88979 -3.28018 7.65068
H 10.06956 -4.24282 6.72670

