%nproc=24
%mem=175gb
#p cam-b3lyp/Def2SVP td=(nstates=5)

TDDFT excited states in gaussian

0 1
Mg 8.93024 0.81228 0.68445
C 11.17235 0.80487 3.48658
C 6.40287 0.21448 2.89570
C 7.00065 0.36556 -1.79437
C 11.70177 0.26897 -1.35740
N 8.91511 0.56289 2.88214
C 9.81860 0.64181 3.84744
C 9.22924 0.62073 5.28332
C 7.84709 -0.13238 4.96492
C 7.68505 0.26368 3.49878
C 7.95508 -1.64625 5.04159
C 8.98045 2.06317 5.84855
C 8.69879 2.12524 7.35140
H 9.20189 3.26899 8.10718
N 6.94881 0.84400 0.57728
C 6.07581 0.59975 1.57702
C 4.73654 0.72801 0.98197
C 4.89119 0.90561 -0.48747
C 6.31647 0.68633 -0.63094
C 3.48046 0.75651 1.80347
C 3.91546 1.20842 -1.58404
O 4.23121 1.08297 -2.81992
C 2.55155 1.56601 -1.16770
N 9.26417 0.17033 -1.26459
C 8.25919 0.11559 -2.15618
C 8.78256 -0.10703 -3.55508
C 10.37043 0.05172 -3.45004
C 10.50368 0.25948 -1.92542
C 8.44703 -1.45939 -4.18351
C 11.03865 1.08492 -4.39801
C 10.61871 2.48531 -4.01338
N 11.07342 0.75934 0.95286
C 12.04984 0.48912 -0.03084
C 13.35848 0.45108 0.65360
C 13.04760 0.68080 2.00233
C 11.64222 0.82999 2.15117
C 14.61231 0.17988 0.03676
C 13.58771 0.82044 3.33555
O 14.72049 0.87460 3.81264
C 12.38546 0.78118 4.37451
C 12.56900 1.91945 5.34051
O 12.49248 3.09790 4.95060
O 12.58750 1.43393 6.59522
C 12.75642 2.52634 7.59017
H 5.57396 -0.19754 3.47192
H 6.39141 0.30970 -2.69946
H 12.62394 0.20250 -1.93866
H 9.80570 0.05151 6.00266
H 7.03184 0.26963 5.56083
H 8.97540 -1.97077 5.18223
H 7.56627 -2.01685 4.10216
H 7.28804 -2.03294 5.81738
H 8.02418 2.43901 5.46249
H 9.79873 2.71337 5.60711
H 8.95547 1.18693 7.85798
H 7.62046 2.22301 7.49861
H 3.66816 0.43879 2.83653
H 2.81605 -0.01455 1.39862
H 2.97032 1.72114 1.75968
H 2.12929 0.75498 -0.57915
H 2.02628 1.83382 -2.08653
H 2.60478 2.43912 -0.50781
H 8.39864 0.64309 -4.23554
H 10.89039 -0.88846 -3.68570
H 7.90708 -1.37186 -5.14521
H 7.86648 -2.03169 -3.47219
H 9.30115 -2.11049 -4.36165
H 10.70007 0.93054 -5.42547
H 12.12204 1.02811 -4.40398
H 9.65138 2.59856 -4.51191
H 11.33868 3.21500 -4.37840
H 10.44410 2.56131 -2.93385
H 15.31896 0.89211 0.44156
H 14.54699 0.25537 -1.04666
H 14.77377 -0.84959 0.36751
H 12.41531 -0.18816 4.87359
H 13.63098 2.27306 8.19736
H 11.78540 2.60600 8.11412
H 13.03412 3.50529 7.21735

