%nproc=24
%mem=175gb
#p cam-b3lyp/Def2SVP td=(nstates=5)

TDDFT excited states in gaussian

0 1
Mg 0.00000 0.00000 0.00000
C -0.21700 -2.21800 2.80100
C -1.25500 2.44200 2.02600
C -0.24500 1.85000 -2.56400
C 0.14600 -2.82400 -2.03700
N -0.61700 -0.00900 2.12600
C -0.59400 -0.90800 3.10500
C -0.93600 -0.30900 4.50200
C -1.77300 0.96400 4.03200
C -1.15500 1.16800 2.66000
C -3.26300 0.68500 3.86300
C 0.34500 0.11000 5.29900
C 0.12400 0.39700 6.78700
H 1.16800 0.03300 7.73300
N -0.18500 1.96100 -0.15200
C -0.70300 2.80000 0.77700
C -0.62000 4.15600 0.19300
C -0.18700 4.01500 -1.22500
C -0.21400 2.58300 -1.38000
C -0.88700 5.40600 0.97400
C 0.18100 5.01300 -2.27700
O 0.30300 4.69000 -3.50800
C 0.31000 6.41400 -1.83700
N -0.26500 -0.41300 -2.02900
C -0.27900 0.56900 -2.93700
C -0.19600 0.02400 -4.33200
C 0.12400 -1.53300 -4.18000
C 0.08600 -1.63200 -2.63500
C -1.45100 0.20500 -5.19700
C 1.37300 -2.07000 -4.92300
C 2.62600 -1.49000 -4.30600
N 0.15000 -2.14400 0.30300
C 0.17300 -3.13600 -0.68800
C 0.17300 -4.43800 0.00400
C 0.13300 -4.11100 1.35800
C 0.08300 -2.69500 1.50200
C 0.14900 -5.71500 -0.62300
C 0.09600 -4.62900 2.71600
O 0.20800 -5.74700 3.22100
C -0.25500 -3.42800 3.70100
C 0.71700 -3.48200 4.84800
O 1.93100 -3.25500 4.66900
O 0.03800 -3.55600 6.00300
C 0.94300 -3.58300 7.18300
H -1.85900 3.22000 2.49700
H -0.21800 2.45300 -3.47400
H 0.27600 -3.74700 -2.60500
H -1.55400 -0.94900 5.13200
H -1.58500 1.83100 4.66500
H -3.48400 -0.37700 3.96900
H -3.51100 1.02700 2.85800
H -3.85200 1.30100 4.54300
H 0.66900 1.09600 4.96600
H 1.13000 -0.63900 5.18900
H -0.84400 0.02600 7.12500
H 0.06200 1.47700 6.92100
H -1.34400 5.18600 1.93800
H -1.65100 5.96300 0.43200
H 0.00700 6.02000 1.08400
H -0.63500 6.74400 -1.40500
H 0.66500 6.97000 -2.70400
H 1.04800 6.46600 -1.03600
H 0.60800 0.50100 -4.89100
H -0.69200 -2.15600 -4.54700
H -1.26700 0.74000 -6.12900
H -2.20400 0.71400 -4.59600
H -1.96700 -0.72000 -5.45300
H 1.35600 -1.75900 -5.96700
H 1.45200 -3.15700 -4.90200
H 2.71400 -0.52200 -4.79800
H 3.48700 -2.12100 -4.52900
H 2.49500 -1.30300 -3.24000
H 0.86700 -6.33300 -0.08400
H 0.40400 -5.64200 -1.68000
H -0.89100 -5.99900 -0.46300
H -1.28300 -3.58100 4.02800
H 0.69800 -4.47800 7.75500
H 0.83300 -2.61900 7.68000
H 2.00000 -3.75400 6.97600
Mg 31.53131 2.84337 2.40481
C 29.58144 0.35677 4.10593
C 28.94949 5.01041 2.92703
C 33.02460 4.91939 0.52659
C 33.40786 0.24109 1.04379
N 29.57187 2.59778 3.40107
C 28.96567 1.62507 4.06491
C 27.66251 2.05614 4.78984
C 27.29244 3.32863 3.88281
C 28.69243 3.69749 3.39635
C 26.44307 2.97830 2.67236
C 27.91718 2.46897 6.28206
C 26.65478 2.60394 7.13639
H 26.72014 2.21211 8.54162
N 31.30108 4.80602 2.22156
C 30.19335 5.52488 2.49987
C 30.52831 6.92081 2.17839
C 31.86873 6.94471 1.53231
C 32.11310 5.52448 1.37957
C 29.64845 8.07665 2.55693
C 32.77440 8.06125 1.10887
O 33.78729 7.85598 0.35076
C 32.38737 9.41530 1.53110
N 32.86500 2.61142 0.82690
C 33.40564 3.68020 0.21587
C 34.53747 3.27217 -0.69674
C 34.80390 1.72620 -0.38601
C 33.67117 1.47406 0.63318
C 34.28401 3.45393 -2.19311
C 36.25294 1.32658 0.00549
C 36.60617 1.91921 1.35063
N 31.64386 0.70224 2.67113
C 32.48257 -0.20023 1.98105
C 32.11612 -1.56098 2.42434
C 31.06575 -1.35557 3.33154
C 30.78307 0.03361 3.43037
C 32.69680 -2.77314 1.95574
C 30.12473 -1.99883 4.22003
O 29.94956 -3.15148 4.61301
C 29.03747 -0.92839 4.66548
C 28.87122 -1.02827 6.15709
O 29.80781 -0.72969 6.91884
O 27.57489 -1.24876 6.44219
C 27.35777 -1.34435 7.91036
H 28.11172 5.70243 2.83675
H 33.64297 5.60050 -0.06263
H 34.01150 -0.61680 0.73994
H 26.86079 1.32830 4.75415
H 26.87298 4.13241 4.48227
H 26.32701 1.91090 2.55693
H 26.96017 3.39712 1.81899
H 25.48054 3.49511 2.72494
H 28.27510 3.50619 6.31054
H 28.60172 1.79086 6.75346
H 25.77943 2.15408 6.65231
H 26.40161 3.66390 7.21641
H 28.65393 7.73846 2.87311
H 29.46233 8.64982 1.64222
H 30.11060 8.73300 3.29739
H 31.39642 9.64416 1.14626
H 33.20329 10.06585 1.21028
H 32.31230 9.43287 2.62411
H 35.43565 3.83517 -0.47443
H 34.58838 1.09218 -1.25860
H 35.03729 4.09507 -2.68868
H 33.29109 3.86325 -2.32387
H 34.23095 2.53093 -2.76797
H 36.96647 1.73871 -0.71227
H 36.41146 0.25381 0.03741
H 36.91611 2.93762 1.09790
H 37.41885 1.36258 1.81297
H 35.72074 1.99384 1.99257
H 32.85888 -3.39701 2.82466
H 33.62523 -2.58797 1.41954
H 31.90285 -3.12595 1.29209
H 28.11340 -1.15945 4.13418
H 26.86751 -2.30444 8.09898
H 26.80043 -0.43063 8.19005
H 28.23429 -1.42671 8.54232

