%nproc=24
%mem=175gb
#p cam-b3lyp/Def2SVP td=(nstates=5)

TDDFT excited states in gaussian

0 1
Mg 13.14666 1.17826 0.99297
C 13.02401 2.89304 -2.15720
C 12.65581 -1.72098 -0.73563
C 12.79991 -0.30587 3.77587
C 12.48567 4.23732 2.52625
N 12.88858 0.76785 -1.16509
C 12.92168 1.49115 -2.27418
C 12.92138 0.65934 -3.58477
C 12.23392 -0.67786 -3.02072
C 12.64344 -0.56317 -1.55382
C 10.71637 -0.65233 -3.09636
C 14.37122 0.37986 -4.11568
C 14.43954 -0.15732 -5.54694
H 15.55565 0.25613 -6.39301
N 13.26979 -0.75048 1.44395
C 13.06148 -1.79488 0.61504
C 13.25370 -3.00236 1.43309
C 13.43048 -2.58531 2.85067
C 13.14663 -1.16808 2.74585
C 13.33623 -4.38025 0.84316
C 13.78258 -3.33973 4.09689
O 13.64821 -2.81855 5.26014
C 14.20058 -4.73819 3.92063
N 12.49864 1.81913 2.86157
C 12.49401 0.98418 3.91550
C 12.25376 1.73378 5.20421
C 12.33898 3.28426 4.82168
C 12.53370 3.15785 3.29475
C 10.92100 1.45360 5.89823
C 13.34457 4.15325 5.62562
C 14.76106 3.73514 5.30292
N 12.99421 3.23693 0.35526
C 12.68378 4.35740 1.15668
C 12.58269 5.52312 0.25486
C 12.82051 4.99162 -1.02164
C 13.03340 3.58992 -0.92472
C 12.25693 6.85221 0.64667
C 12.92934 5.29584 -2.43029
O 12.92934 6.32897 -3.09842
C 12.94074 3.92984 -3.24289
C 14.06514 3.99196 -4.24008
O 15.24755 4.03727 -3.85740
O 13.57377 3.76910 -5.47266
C 14.65288 3.80973 -6.49524
H 12.27974 -2.65539 -1.15318
H 12.77606 -0.74925 4.77403
H 12.37950 5.24307 2.93840
H 12.32313 1.07521 -4.38660
H 12.67031 -1.56611 -3.47010
H 10.34473 0.31221 -3.40891
H 10.36814 -0.88689 -2.09898
H 10.35730 -1.46131 -3.73897
H 14.79226 -0.47647 -3.57330
H 14.98422 1.25582 -4.02882
H 13.48821 -0.03515 -6.07891
H 14.58607 -1.23934 -5.50487
H 13.00569 -4.39047 -0.20280
H 12.59828 -4.99719 1.36726
H 14.32345 -4.83149 0.96340
H 13.40721 -5.29250 3.42489
H 14.49626 -5.08220 4.91366
H 15.06742 -4.76247 3.25084
H 13.02369 1.50854 5.93193
H 11.37696 3.79513 4.97456
H 11.03746 1.09464 6.93826
H 10.37283 0.73273 5.30629
H 10.23216 2.29593 5.93258
H 13.21042 3.99309 6.69823
H 13.23811 5.21736 5.44309
H 14.92079 2.87593 5.96120
H 15.45853 4.53956 5.52762
H 14.84025 3.37793 4.26958
H 12.93418 7.50810 0.11597
H 12.34010 6.98085 1.72385
H 11.21969 6.90742 0.30556
H 11.96888 3.82882 -3.72749
H 14.35705 4.55246 -7.24259
H 14.77473 2.76654 -6.84260
H 15.61968 4.19159 -6.18875

