%nproc=24
%mem=175gb
#p cam-b3lyp/Def2SVP td=(nstates=5)

TDDFT excited states in gaussian

0 1
Mg 0.00000 0.00000 0.00000
C -0.21700 -2.21800 2.80100
C -1.25500 2.44200 2.02600
C -0.24500 1.85000 -2.56400
C 0.14600 -2.82400 -2.03700
N -0.61700 -0.00900 2.12600
C -0.59400 -0.90800 3.10500
C -0.93600 -0.30900 4.50200
C -1.77300 0.96400 4.03200
C -1.15500 1.16800 2.66000
C -3.26300 0.68500 3.86300
C 0.34500 0.11000 5.29900
C 0.12400 0.39700 6.78700
H 1.16800 0.03300 7.73300
N -0.18500 1.96100 -0.15200
C -0.70300 2.80000 0.77700
C -0.62000 4.15600 0.19300
C -0.18700 4.01500 -1.22500
C -0.21400 2.58300 -1.38000
C -0.88700 5.40600 0.97400
C 0.18100 5.01300 -2.27700
O 0.30300 4.69000 -3.50800
C 0.31000 6.41400 -1.83700
N -0.26500 -0.41300 -2.02900
C -0.27900 0.56900 -2.93700
C -0.19600 0.02400 -4.33200
C 0.12400 -1.53300 -4.18000
C 0.08600 -1.63200 -2.63500
C -1.45100 0.20500 -5.19700
C 1.37300 -2.07000 -4.92300
C 2.62600 -1.49000 -4.30600
N 0.15000 -2.14400 0.30300
C 0.17300 -3.13600 -0.68800
C 0.17300 -4.43800 0.00400
C 0.13300 -4.11100 1.35800
C 0.08300 -2.69500 1.50200
C 0.14900 -5.71500 -0.62300
C 0.09600 -4.62900 2.71600
O 0.20800 -5.74700 3.22100
C -0.25500 -3.42800 3.70100
C 0.71700 -3.48200 4.84800
O 1.93100 -3.25500 4.66900
O 0.03800 -3.55600 6.00300
C 0.94300 -3.58300 7.18300
H -1.85900 3.22000 2.49700
H -0.21800 2.45300 -3.47400
H 0.27600 -3.74700 -2.60500
H -1.55400 -0.94900 5.13200
H -1.58500 1.83100 4.66500
H -3.48400 -0.37700 3.96900
H -3.51100 1.02700 2.85800
H -3.85200 1.30100 4.54300
H 0.66900 1.09600 4.96600
H 1.13000 -0.63900 5.18900
H -0.84400 0.02600 7.12500
H 0.06200 1.47700 6.92100
H -1.34400 5.18600 1.93800
H -1.65100 5.96300 0.43200
H 0.00700 6.02000 1.08400
H -0.63500 6.74400 -1.40500
H 0.66500 6.97000 -2.70400
H 1.04800 6.46600 -1.03600
H 0.60800 0.50100 -4.89100
H -0.69200 -2.15600 -4.54700
H -1.26700 0.74000 -6.12900
H -2.20400 0.71400 -4.59600
H -1.96700 -0.72000 -5.45300
H 1.35600 -1.75900 -5.96700
H 1.45200 -3.15700 -4.90200
H 2.71400 -0.52200 -4.79800
H 3.48700 -2.12100 -4.52900
H 2.49500 -1.30300 -3.24000
H 0.86700 -6.33300 -0.08400
H 0.40400 -5.64200 -1.68000
H -0.89100 -5.99900 -0.46300
H -1.28300 -3.58100 4.02800
H 0.69800 -4.47800 7.75500
H 0.83300 -2.61900 7.68000
H 2.00000 -3.75400 6.97600
Mg 8.94052 0.81037 0.68468
C 8.64071 -0.84142 3.85655
C 7.69142 3.60464 2.19014
C 8.76811 2.15749 -2.18289
C 9.06748 -2.34482 -0.78988
N 8.28819 1.20647 2.76070
C 8.27778 0.52104 3.89402
C 7.93173 1.36270 5.15157
C 7.11497 2.54399 4.43301
C 7.75729 2.47845 3.04889
C 5.63187 2.24718 4.28585
C 9.21191 1.90803 5.87667
C 8.96580 2.47444 7.27680
H 9.99463 2.28389 8.29546
N 8.79130 2.72134 0.17037
C 8.27923 3.72598 0.91182
C 8.37957 4.93339 0.07741
C 8.84095 4.52948 -1.27858
C 8.79709 3.08643 -1.15295
C 8.12845 6.31405 0.61045
C 9.24151 5.31236 -2.49219
O 9.37966 4.75463 -3.63791
C 9.37622 6.76616 -2.31951
N 8.70772 0.02979 -1.22812
C 8.71786 0.83114 -2.30778
C 8.81219 0.02744 -3.58275
C 9.10825 -1.47524 -3.12247
C 9.04242 -1.28835 -1.59076
C 7.57277 0.05068 -4.47701
C 10.36125 -2.16344 -3.72996
C 11.61649 -1.49153 -3.22172
N 9.05548 -1.23030 1.38504
C 9.07213 -2.40259 0.59794
C 9.04033 -3.55103 1.52664
C 8.98369 -2.96249 2.79901
C 8.96004 -1.54734 2.67145
C 9.01608 -4.92389 1.15141
C 8.92781 -3.21673 4.22060
O 9.00677 -4.22078 4.92728
C 8.57560 -1.85655 4.96375
C 9.52788 -1.69735 6.11715
O 10.74429 -1.53605 5.91483
O 8.82277 -1.54436 7.25284
C 9.72338 -1.37172 8.42369
H 7.09825 4.46350 2.50542
H 8.81962 2.57127 -3.19265
H 9.20328 -3.36052 -1.16748
H 7.30030 0.86049 5.87465
H 7.31524 3.50422 4.90122
H 5.39164 1.23730 4.58347
H 5.40434 2.39723 3.23859
H 5.04284 2.98979 4.83165
H 9.55423 2.81623 5.36409
H 9.97482 1.15525 5.92036
H 7.98069 2.19270 7.66813
H 8.92521 3.56423 7.20807
H 7.64550 6.28347 1.59495
H 7.38263 6.77859 -0.04364
H 9.02797 6.93332 0.61643
H 8.43179 7.17750 -1.97121
H 9.75514 7.13980 -3.27276
H 10.11284 6.95808 -1.53137
H 9.63268 0.37440 -4.19879
H 8.28538 -2.15355 -3.39194
H 7.78192 0.40593 -5.50371
H 6.82298 0.67170 -4.00511
H 7.05556 -0.90233 -4.57429
H 10.36645 -2.04940 -4.81675
H 10.41623 -3.22588 -3.51736
H 11.72184 -0.62961 -3.88737
H 12.47007 -2.16124 -3.30505
H 11.47321 -1.10734 -2.20510
H 9.70867 -5.43753 1.80486
H 9.28394 -5.05485 0.10505
H 7.96483 -5.15868 1.33851
H 7.53866 -1.92334 5.29522
H 9.45165 -2.14197 9.15210
H 9.60615 -0.31754 8.73789
H 10.77739 -1.57884 8.28012

