%nproc=24
%mem=175gb
#p cam-b3lyp/Def2SVP td=(nstates=5)

TDDFT excited states in gaussian

0 1
Mg 0.00000 0.00000 0.00000
C -0.21700 -2.21800 2.80100
C -1.25500 2.44200 2.02600
C -0.24500 1.85000 -2.56400
C 0.14600 -2.82400 -2.03700
N -0.61700 -0.00900 2.12600
C -0.59400 -0.90800 3.10500
C -0.93600 -0.30900 4.50200
C -1.77300 0.96400 4.03200
C -1.15500 1.16800 2.66000
C -3.26300 0.68500 3.86300
C 0.34500 0.11000 5.29900
C 0.12400 0.39700 6.78700
H 1.16800 0.03300 7.73300
N -0.18500 1.96100 -0.15200
C -0.70300 2.80000 0.77700
C -0.62000 4.15600 0.19300
C -0.18700 4.01500 -1.22500
C -0.21400 2.58300 -1.38000
C -0.88700 5.40600 0.97400
C 0.18100 5.01300 -2.27700
O 0.30300 4.69000 -3.50800
C 0.31000 6.41400 -1.83700
N -0.26500 -0.41300 -2.02900
C -0.27900 0.56900 -2.93700
C -0.19600 0.02400 -4.33200
C 0.12400 -1.53300 -4.18000
C 0.08600 -1.63200 -2.63500
C -1.45100 0.20500 -5.19700
C 1.37300 -2.07000 -4.92300
C 2.62600 -1.49000 -4.30600
N 0.15000 -2.14400 0.30300
C 0.17300 -3.13600 -0.68800
C 0.17300 -4.43800 0.00400
C 0.13300 -4.11100 1.35800
C 0.08300 -2.69500 1.50200
C 0.14900 -5.71500 -0.62300
C 0.09600 -4.62900 2.71600
O 0.20800 -5.74700 3.22100
C -0.25500 -3.42800 3.70100
C 0.71700 -3.48200 4.84800
O 1.93100 -3.25500 4.66900
O 0.03800 -3.55600 6.00300
C 0.94300 -3.58300 7.18300
H -1.85900 3.22000 2.49700
H -0.21800 2.45300 -3.47400
H 0.27600 -3.74700 -2.60500
H -1.55400 -0.94900 5.13200
H -1.58500 1.83100 4.66500
H -3.48400 -0.37700 3.96900
H -3.51100 1.02700 2.85800
H -3.85200 1.30100 4.54300
H 0.66900 1.09600 4.96600
H 1.13000 -0.63900 5.18900
H -0.84400 0.02600 7.12500
H 0.06200 1.47700 6.92100
H -1.34400 5.18600 1.93800
H -1.65100 5.96300 0.43200
H 0.00700 6.02000 1.08400
H -0.63500 6.74400 -1.40500
H 0.66500 6.97000 -2.70400
H 1.04800 6.46600 -1.03600
H 0.60800 0.50100 -4.89100
H -0.69200 -2.15600 -4.54700
H -1.26700 0.74000 -6.12900
H -2.20400 0.71400 -4.59600
H -1.96700 -0.72000 -5.45300
H 1.35600 -1.75900 -5.96700
H 1.45200 -3.15700 -4.90200
H 2.71400 -0.52200 -4.79800
H 3.48700 -2.12100 -4.52900
H 2.49500 -1.30300 -3.24000
H 0.86700 -6.33300 -0.08400
H 0.40400 -5.64200 -1.68000
H -0.89100 -5.99900 -0.46300
H -1.28300 -3.58100 4.02800
H 0.69800 -4.47800 7.75500
H 0.83300 -2.61900 7.68000
H 2.00000 -3.75400 6.97600
Mg 10.51985 0.95018 0.79444
C 12.94204 -1.19630 2.34514
C 12.07479 3.56745 2.33284
C 8.14374 2.80982 -0.18704
C 8.52368 -1.86869 0.33079
N 12.27280 1.04625 2.13988
C 13.15083 0.17321 2.61021
C 14.36253 0.81028 3.34199
C 13.68466 2.20459 3.76065
C 12.63179 2.30507 2.65883
C 12.96993 2.14792 5.10054
C 15.58837 1.03119 2.38778
C 16.90399 1.36043 3.09666
H 18.14768 0.84619 2.52986
N 10.42102 2.92492 0.62356
C 11.14065 3.83802 1.30887
C 10.68149 5.15198 0.83261
C 9.51673 4.94303 -0.06983
C 9.29752 3.52156 0.10753
C 11.38479 6.43307 1.17552
C 8.72253 5.87159 -0.93772
O 7.60321 5.51920 -1.45324
C 9.24755 7.23637 -1.09007
N 8.52337 0.57256 0.35418
C 7.71975 1.54865 -0.10339
C 6.41311 0.98657 -0.61050
C 6.60381 -0.60123 -0.62131
C 8.01820 -0.69042 -0.00736
C 5.17274 1.34435 0.20795
C 6.33344 -1.33341 -1.96425
C 7.38091 -0.94616 -2.98319
N 10.74772 -1.18010 1.07379
C 9.77741 -2.17944 0.84165
C 10.35933 -3.46274 1.28540
C 11.62919 -3.11482 1.77007
C 11.81704 -1.71080 1.65635
C 9.70594 -4.72698 1.25557
C 12.84933 -3.61460 2.36184
O 13.29923 -4.73207 2.61198
C 13.70450 -2.37789 2.87723
C 15.12159 -2.56576 2.40919
O 15.39528 -2.54015 1.19633
O 15.94553 -2.52700 3.47220
C 17.36356 -2.69783 3.05768
H 12.34566 4.42784 2.94541
H 7.33265 3.39016 -0.63293
H 8.00253 -2.80702 0.12927
H 14.69141 0.27660 4.22562
H 14.39287 3.02583 3.68735
H 12.93487 1.14379 5.49631
H 11.96954 2.51706 4.91614
H 13.42669 2.85243 5.80152
H 15.44053 1.96155 1.82446
H 15.72703 0.18488 1.74346
H 16.85632 1.15099 4.17221
H 17.06777 2.43935 3.04070
H 12.10758 6.29007 1.98825
H 10.63214 7.10812 1.59705
H 11.83933 6.91020 0.30466
H 9.32777 7.70378 -0.11152
H 8.59282 7.72198 -1.81629
H 10.26407 7.17703 -1.49478
H 6.21319 1.32338 -1.62030
H 5.92271 -1.09823 0.08505
H 4.38804 1.84900 -0.38674
H 5.47948 1.96628 1.03840
H 4.69411 0.50616 0.71148
H 5.36990 -1.02432 -2.37681
H 6.31182 -2.41401 -1.87032
H 7.00104 -0.00005 -3.38025
H 7.45362 -1.70093 -3.76363
H 8.34249 -0.73836 -2.49963
H 10.42868 -5.44234 0.88625
H 8.81641 -4.70012 0.62965
H 9.45952 -4.84421 2.31425
H 13.63171 -2.35998 3.96533
H 17.76307 -3.54317 3.62644
H 17.84186 -1.71302 3.21619
H 17.55307 -3.01908 2.04016

