%nproc=24
%mem=175gb
#p cam-b3lyp/Def2SVP td=(nstates=5)

TDDFT excited states in gaussian

0 1
Mg 0.00000 0.00000 0.00000
C -0.21700 -2.21800 2.80100
C -1.25500 2.44200 2.02600
C -0.24500 1.85000 -2.56400
C 0.14600 -2.82400 -2.03700
N -0.61700 -0.00900 2.12600
C -0.59400 -0.90800 3.10500
C -0.93600 -0.30900 4.50200
C -1.77300 0.96400 4.03200
C -1.15500 1.16800 2.66000
C -3.26300 0.68500 3.86300
C 0.34500 0.11000 5.29900
C 0.12400 0.39700 6.78700
H 1.16800 0.03300 7.73300
N -0.18500 1.96100 -0.15200
C -0.70300 2.80000 0.77700
C -0.62000 4.15600 0.19300
C -0.18700 4.01500 -1.22500
C -0.21400 2.58300 -1.38000
C -0.88700 5.40600 0.97400
C 0.18100 5.01300 -2.27700
O 0.30300 4.69000 -3.50800
C 0.31000 6.41400 -1.83700
N -0.26500 -0.41300 -2.02900
C -0.27900 0.56900 -2.93700
C -0.19600 0.02400 -4.33200
C 0.12400 -1.53300 -4.18000
C 0.08600 -1.63200 -2.63500
C -1.45100 0.20500 -5.19700
C 1.37300 -2.07000 -4.92300
C 2.62600 -1.49000 -4.30600
N 0.15000 -2.14400 0.30300
C 0.17300 -3.13600 -0.68800
C 0.17300 -4.43800 0.00400
C 0.13300 -4.11100 1.35800
C 0.08300 -2.69500 1.50200
C 0.14900 -5.71500 -0.62300
C 0.09600 -4.62900 2.71600
O 0.20800 -5.74700 3.22100
C -0.25500 -3.42800 3.70100
C 0.71700 -3.48200 4.84800
O 1.93100 -3.25500 4.66900
O 0.03800 -3.55600 6.00300
C 0.94300 -3.58300 7.18300
H -1.85900 3.22000 2.49700
H -0.21800 2.45300 -3.47400
H 0.27600 -3.74700 -2.60500
H -1.55400 -0.94900 5.13200
H -1.58500 1.83100 4.66500
H -3.48400 -0.37700 3.96900
H -3.51100 1.02700 2.85800
H -3.85200 1.30100 4.54300
H 0.66900 1.09600 4.96600
H 1.13000 -0.63900 5.18900
H -0.84400 0.02600 7.12500
H 0.06200 1.47700 6.92100
H -1.34400 5.18600 1.93800
H -1.65100 5.96300 0.43200
H 0.00700 6.02000 1.08400
H -0.63500 6.74400 -1.40500
H 0.66500 6.97000 -2.70400
H 1.04800 6.46600 -1.03600
H 0.60800 0.50100 -4.89100
H -0.69200 -2.15600 -4.54700
H -1.26700 0.74000 -6.12900
H -2.20400 0.71400 -4.59600
H -1.96700 -0.72000 -5.45300
H 1.35600 -1.75900 -5.96700
H 1.45200 -3.15700 -4.90200
H 2.71400 -0.52200 -4.79800
H 3.48700 -2.12100 -4.52900
H 2.49500 -1.30300 -3.24000
H 0.86700 -6.33300 -0.08400
H 0.40400 -5.64200 -1.68000
H -0.89100 -5.99900 -0.46300
H -1.28300 -3.58100 4.02800
H 0.69800 -4.47800 7.75500
H 0.83300 -2.61900 7.68000
H 2.00000 -3.75400 6.97600
Mg 7.88111 0.71829 0.60471
C 9.97467 0.10152 3.45351
C 5.22596 0.72977 2.74590
C 5.96842 0.81160 -1.92519
C 10.48415 -0.46201 -1.38948
N 7.74531 0.44096 2.79489
C 8.61373 0.27467 3.78106
C 7.99926 0.37533 5.20298
C 6.48227 -0.00350 4.83676
C 6.46336 0.44683 3.37748
C 6.20807 -1.49761 4.87914
C 8.10211 1.82380 5.79741
C 7.80444 1.92703 7.29491
H 8.55580 2.89538 8.08878
N 5.97351 1.24500 0.45566
C 5.04063 1.20815 1.43017
C 3.79190 1.67700 0.80967
C 4.02533 1.83691 -0.65138
C 5.35455 1.27179 -0.76936
C 2.56080 2.00298 1.60436
C 3.18549 2.39317 -1.76108
O 3.49321 2.21527 -2.99254
C 1.94276 3.07199 -1.36570
N 8.09709 0.04861 -1.35163
C 7.13444 0.26228 -2.26573
C 7.62338 -0.05854 -3.65799
C 9.19739 -0.30265 -3.51496
C 9.33710 -0.16221 -1.98325
C 6.97892 -1.27296 -4.32601
C 10.12693 0.54822 -4.42307
C 10.05846 2.00192 -4.01384
N 9.93569 0.12780 0.91788
C 10.84025 -0.35956 -0.05079
C 12.07937 -0.73504 0.66056
C 11.79928 -0.45943 2.00744
C 10.47175 0.03276 2.12952
C 13.24240 -1.29914 0.06451
C 12.32109 -0.48294 3.35498
O 13.41847 -0.72156 3.85753
C 11.11940 -0.23992 4.36654
C 11.55435 0.79902 5.36350
O 11.78398 1.96616 5.00062
O 11.41772 0.30167 6.60621
C 11.82632 1.29934 7.63068
H 4.30542 0.52713 3.29399
H 5.38902 0.92574 -2.84428
H 11.37606 -0.74582 -1.95217
H 8.39639 -0.33254 5.92061
H 5.77697 0.57828 5.42451
H 7.11139 -2.06877 5.03384
H 5.76468 -1.74255 3.92287
H 5.44518 -1.71969 5.63080
H 7.28017 2.43311 5.40003
H 9.06262 2.25368 5.58944
H 7.80586 0.94536 7.78407
H 6.78080 2.28791 7.42117
H 2.63569 1.62992 2.63325
H 1.73656 1.42938 1.16677
H 2.30810 3.06497 1.57291
H 1.31632 2.38138 -0.80616
H 1.52556 3.47884 -2.28890
H 2.19381 3.89220 -0.68391
H 7.45662 0.77576 -4.32825
H 9.47320 -1.33838 -3.76202
H 6.50380 -1.03623 -5.29672
H 6.25532 -1.69517 -3.64140
H 7.64864 -2.11315 -4.50139
H 9.78833 0.50170 -5.46102
H 11.16186 0.22319 -4.40706
H 9.16349 2.36176 -4.53021
H 10.94689 2.53550 -4.34553
H 9.87929 2.09957 -2.93681
H 14.09290 -0.79303 0.50154
H 13.22708 -1.19022 -1.01792
H 13.13367 -2.34215 0.37369
H 10.89368 -1.19492 4.84257
H 12.59370 0.82507 8.25027
H 10.89193 1.60913 8.13536
H 12.34880 2.18468 7.28770

