%nproc=24
%mem=175gb
#p cam-b3lyp/Def2SVP td=(nstates=5)

TDDFT excited states in gaussian

0 1
Mg 10.50933 0.95493 0.80435
C 12.54201 0.19304 3.66211
C 7.84676 1.12246 2.92974
C 8.62223 1.18140 -1.73632
C 13.04547 -0.37655 -1.18080
N 10.34259 0.67545 2.99212
C 11.19262 0.44979 3.98251
C 10.57678 0.58160 5.40129
C 9.04131 0.30086 5.02396
C 9.05992 0.75898 3.56710
C 8.67343 -1.17323 5.05645
C 10.76678 2.01767 6.00431
C 10.46679 2.13172 7.50055
H 11.27255 3.04679 8.30421
N 8.63960 1.60139 0.64687
C 7.70015 1.61830 1.61559
C 6.48730 2.16798 0.99028
C 6.73950 2.32038 -0.46845
C 8.03126 1.67336 -0.58164
C 5.27416 2.56668 1.77942
C 5.94329 2.93408 -1.58004
O 6.24695 2.74349 -2.81061
C 4.74325 3.68770 -1.18832
N 10.69505 0.28305 -1.15433
C 9.75351 0.56156 -2.07295
C 10.23005 0.21777 -3.46403
C 11.78467 -0.12563 -3.31299
C 11.92330 -0.00212 -1.77972
C 9.51471 -0.95025 -4.14256
C 12.77156 0.66973 -4.21083
C 12.79207 2.12273 -3.79401
N 12.52070 0.23474 1.12648
C 13.39889 -0.30358 0.16053
C 14.60745 -0.75993 0.87715
C 14.33679 -0.47416 2.22384
C 13.04210 0.09994 2.34074
C 15.73643 -1.39303 0.28493
C 14.84761 -0.53738 3.57431
O 15.92463 -0.84716 4.08206
C 13.65725 -0.22444 4.58003
C 14.15040 0.77995 5.58528
O 14.45525 1.93217 5.23023
O 13.97495 0.28581 6.82440
C 14.43904 1.25051 7.85677
H 6.91186 0.97532 3.47123
H 8.05694 1.33649 -2.65820
H 13.92129 -0.71302 -1.73974
H 10.92410 -0.15352 6.11735
H 8.37030 0.92284 5.61071
H 9.53804 -1.80089 5.21337
H 8.22152 -1.38487 4.09623
H 7.89337 -1.35073 5.80233
H 9.98730 2.67952 5.60542
H 11.75371 2.38732 5.80443
H 10.40340 1.14942 7.98429
H 9.46710 2.55565 7.62271
H 5.31898 2.18436 2.80666
H 4.41825 2.04833 1.33378
H 5.08895 3.64261 1.75233
H 4.07112 3.03501 -0.63634
H 4.35827 4.12473 -2.11172
H 5.04110 4.48698 -0.50053
H 10.12031 1.06434 -4.13065
H 11.99634 -1.17537 -3.56411
H 9.06152 -0.67911 -5.11476
H 8.76170 -1.32960 -3.46461
H 10.13136 -1.83000 -4.31859
H 12.43723 0.64993 -5.25102
H 13.78388 0.28014 -4.19047
H 11.92477 2.54081 -4.31370
H 13.71437 2.60106 -4.11745
H 12.61263 2.22593 -2.71753
H 16.61431 -0.94368 0.72979
H 15.73479 -1.27779 -0.79696
H 15.56038 -2.42870 0.58769
H 13.36893 -1.16577 5.04943
H 15.17117 0.72572 8.47829
H 13.52283 1.61588 8.35758
H 15.01831 2.10297 7.52180

