%nproc=24
%mem=175gb
#p cam-b3lyp/Def2SVP td=(nstates=5)

TDDFT excited states in gaussian

0 1
Mg 0.00000 0.00000 0.00000
C -0.21700 -2.21800 2.80100
C -1.25500 2.44200 2.02600
C -0.24500 1.85000 -2.56400
C 0.14600 -2.82400 -2.03700
N -0.61700 -0.00900 2.12600
C -0.59400 -0.90800 3.10500
C -0.93600 -0.30900 4.50200
C -1.77300 0.96400 4.03200
C -1.15500 1.16800 2.66000
C -3.26300 0.68500 3.86300
C 0.34500 0.11000 5.29900
C 0.12400 0.39700 6.78700
H 1.16800 0.03300 7.73300
N -0.18500 1.96100 -0.15200
C -0.70300 2.80000 0.77700
C -0.62000 4.15600 0.19300
C -0.18700 4.01500 -1.22500
C -0.21400 2.58300 -1.38000
C -0.88700 5.40600 0.97400
C 0.18100 5.01300 -2.27700
O 0.30300 4.69000 -3.50800
C 0.31000 6.41400 -1.83700
N -0.26500 -0.41300 -2.02900
C -0.27900 0.56900 -2.93700
C -0.19600 0.02400 -4.33200
C 0.12400 -1.53300 -4.18000
C 0.08600 -1.63200 -2.63500
C -1.45100 0.20500 -5.19700
C 1.37300 -2.07000 -4.92300
C 2.62600 -1.49000 -4.30600
N 0.15000 -2.14400 0.30300
C 0.17300 -3.13600 -0.68800
C 0.17300 -4.43800 0.00400
C 0.13300 -4.11100 1.35800
C 0.08300 -2.69500 1.50200
C 0.14900 -5.71500 -0.62300
C 0.09600 -4.62900 2.71600
O 0.20800 -5.74700 3.22100
C -0.25500 -3.42800 3.70100
C 0.71700 -3.48200 4.84800
O 1.93100 -3.25500 4.66900
O 0.03800 -3.55600 6.00300
C 0.94300 -3.58300 7.18300
H -1.85900 3.22000 2.49700
H -0.21800 2.45300 -3.47400
H 0.27600 -3.74700 -2.60500
H -1.55400 -0.94900 5.13200
H -1.58500 1.83100 4.66500
H -3.48400 -0.37700 3.96900
H -3.51100 1.02700 2.85800
H -3.85200 1.30100 4.54300
H 0.66900 1.09600 4.96600
H 1.13000 -0.63900 5.18900
H -0.84400 0.02600 7.12500
H 0.06200 1.47700 6.92100
H -1.34400 5.18600 1.93800
H -1.65100 5.96300 0.43200
H 0.00700 6.02000 1.08400
H -0.63500 6.74400 -1.40500
H 0.66500 6.97000 -2.70400
H 1.04800 6.46600 -1.03600
H 0.60800 0.50100 -4.89100
H -0.69200 -2.15600 -4.54700
H -1.26700 0.74000 -6.12900
H -2.20400 0.71400 -4.59600
H -1.96700 -0.72000 -5.45300
H 1.35600 -1.75900 -5.96700
H 1.45200 -3.15700 -4.90200
H 2.71400 -0.52200 -4.79800
H 3.48700 -2.12100 -4.52900
H 2.49500 -1.30300 -3.24000
H 0.86700 -6.33300 -0.08400
H 0.40400 -5.64200 -1.68000
H -0.89100 -5.99900 -0.46300
H -1.28300 -3.58100 4.02800
H 0.69800 -4.47800 7.75500
H 0.83300 -2.61900 7.68000
H 2.00000 -3.75400 6.97600
Mg 7.88960 0.71801 0.60006
C 7.34964 1.48773 4.06345
C 6.77792 3.86182 -0.11775
C 7.92558 -0.07785 -2.47121
C 7.85649 -2.65207 1.48726
N 7.18387 2.36881 1.89199
C 7.08075 2.56802 3.19737
C 6.74388 4.02871 3.60046
C 6.04026 4.49864 2.23556
C 6.73127 3.54473 1.26333
C 4.54722 4.21764 2.20041
C 8.02876 4.87602 3.90564
C 7.76675 6.21381 4.60092
H 8.73840 6.69086 5.58112
N 7.89376 1.86047 -1.02269
C 7.42330 3.12064 -1.13188
C 7.64029 3.51106 -2.53354
C 8.12637 2.32034 -3.28227
C 7.97768 1.29381 -2.27024
C 7.46431 4.91937 -3.02253
C 8.62835 2.13377 -4.68206
O 8.77319 0.96844 -5.19574
C 8.85643 3.35693 -5.46522
N 7.67987 -1.09906 -0.38816
C 7.78861 -1.17490 -1.72620
C 7.87789 -2.61061 -2.18572
C 8.05054 -3.47819 -0.85340
C 7.93669 -2.35263 0.19805
C 6.67977 -3.13069 -2.97970
C 9.27612 -4.43016 -0.78736
C 10.55358 -3.62374 -0.73108
N 7.83486 -0.40404 2.44562
C 7.80170 -1.80843 2.58937
C 7.65335 -2.09513 4.03097
C 7.58684 -0.82736 4.62833
C 7.66638 0.17839 3.62751
C 7.54907 -3.38882 4.61544
C 7.45674 -0.11128 5.87693
O 7.43767 -0.43226 7.06451
C 7.17019 1.41855 5.55464
C 8.08438 2.25253 6.40977
O 9.31616 2.21321 6.24303
O 7.34677 3.11634 7.13096
C 8.20969 3.97325 7.98706
H 6.23354 4.73955 -0.46722
H 8.04592 -0.40772 -3.50571
H 7.93658 -3.67746 1.85447
H 6.05079 4.12330 4.42779
H 6.28770 5.53009 1.99840
H 4.22592 3.63927 3.05387
H 4.37264 3.66898 1.28415
H 3.98972 5.15352 2.10218
H 8.45337 5.23592 2.95964
H 8.73534 4.30476 4.47576
H 6.74965 6.27519 5.00674
H 7.80453 7.00782 3.85116
H 6.94147 5.53931 -2.28380
H 6.77919 4.87819 -3.87621
H 8.40361 5.37381 -3.34482
H 7.92961 3.92188 -5.53072
H 9.29810 3.02331 -6.40624
H 9.57251 3.98827 -4.92739
H 8.74440 -2.76115 -2.81786
H 7.19408 -4.14871 -0.68996
H 6.95387 -3.52073 -3.97811
H 5.95655 -2.33102 -3.06928
H 6.10209 -3.91044 -2.48627
H 9.33261 -5.03823 -1.69357
H 9.24884 -5.11150 0.05646
H 10.74488 -3.39076 -1.78284
H 11.36137 -4.21500 -0.30454
H 10.39676 -2.67415 -0.20635
H 8.17777 -3.38428 5.49591
H 7.84880 -4.16643 3.91597
H 6.47745 -3.42025 4.82968
H 6.11870 1.60813 5.77375
H 7.85638 3.85544 9.01613
H 8.15330 4.98709 7.54808
H 9.25171 3.69310 8.08782

