%nproc=24
%mem=175gb
#p cam-b3lyp/Def2SVP td=(nstates=5)

TDDFT excited states in gaussian

0 1
Mg 13.14502 1.19115 0.99929
C 12.60506 1.96086 4.46267
C 12.03334 4.33495 0.28147
C 13.18101 0.39528 -2.07199
C 13.11191 -2.17894 1.88648
N 12.43930 2.84195 2.29121
C 12.33617 3.04116 3.59659
C 11.99930 4.50184 3.99968
C 11.29568 4.97177 2.63478
C 11.98669 4.01786 1.66255
C 9.80265 4.69078 2.59964
C 13.28419 5.34916 4.30486
C 13.02218 6.68695 5.00014
H 13.99383 7.16399 5.98034
N 13.14919 2.33360 -0.62347
C 12.67873 3.59377 -0.73266
C 12.89571 3.98420 -2.13431
C 13.38180 2.79347 -2.88305
C 13.23311 1.76694 -1.87102
C 12.71974 5.39251 -2.62330
C 13.88378 2.60690 -4.28284
O 14.02862 1.44157 -4.79652
C 14.11186 3.83006 -5.06600
N 12.93530 -0.62593 0.01106
C 13.04403 -0.70177 -1.32698
C 13.13332 -2.13747 -1.78650
C 13.30597 -3.00505 -0.45418
C 13.19211 -1.87950 0.59727
C 11.93519 -2.65756 -2.58048
C 14.53155 -3.95703 -0.38813
C 15.80901 -3.15061 -0.33186
N 13.09029 0.06910 2.84484
C 13.05712 -1.33529 2.98859
C 12.90878 -1.62199 4.43020
C 12.84227 -0.35423 5.02755
C 12.92181 0.65152 4.02673
C 12.80450 -2.91569 5.01466
C 12.71217 0.36185 6.27615
O 12.69310 0.04087 7.46373
C 12.42562 1.89169 5.95386
C 13.33981 2.72566 6.80899
O 14.57158 2.68634 6.64225
O 12.60219 3.58948 7.53018
C 13.46511 4.44638 8.38628
H 11.48897 5.21268 -0.06800
H 13.30135 0.06541 -3.10649
H 13.19201 -3.20432 2.25370
H 11.30622 4.59643 4.82701
H 11.54312 6.00322 2.39763
H 9.48134 4.11240 3.45309
H 9.62807 4.14212 1.68337
H 9.24515 5.62666 2.50140
H 13.70880 5.70906 3.35886
H 13.99077 4.77789 4.87498
H 12.00508 6.74833 5.40597
H 13.05996 7.48096 4.25038
H 12.19689 6.01244 -1.88458
H 12.03461 5.35132 -3.47699
H 13.65903 5.84695 -2.94560
H 13.18504 4.39502 -5.13150
H 14.55352 3.49645 -6.00702
H 14.82794 4.46140 -4.52817
H 13.99983 -2.28802 -2.41864
H 12.44950 -3.67557 -0.29074
H 12.20930 -3.04759 -3.57889
H 11.21197 -1.85789 -2.67005
H 11.35751 -3.43731 -2.08705
H 14.58804 -4.56510 -1.29434
H 14.50426 -4.63837 0.45568
H 16.00030 -2.91763 -1.38362
H 16.61679 -3.74187 0.09469
H 15.65219 -2.20102 0.19287
H 13.43319 -2.91114 5.89513
H 13.10422 -3.69330 4.31519
H 11.73288 -2.94712 5.22890
H 11.37413 2.08126 6.17298
H 13.11181 4.32857 9.41535
H 13.40873 5.46022 7.94730
H 14.50714 4.16623 8.48705

