%nproc=24
%mem=175gb
#p cam-b3lyp/Def2SVP td=(nstates=5)

TDDFT excited states in gaussian

0 1
Mg 10.51245 0.94890 0.78830
C 12.98985 -1.46966 -0.15625
C 12.78363 3.36576 -0.00865
C 8.52515 3.08691 2.03207
C 8.90534 -1.59136 2.55181
N 12.58562 0.83742 0.02553
C 13.40075 -0.13499 -0.35438
C 14.69772 0.35018 -1.05583
C 14.76972 1.82837 -0.43243
C 13.28481 2.04705 -0.14981
C 15.52107 1.88910 0.88709
C 14.55280 0.39188 -2.61765
C 15.86845 0.55790 -3.38137
H 16.01999 -0.12475 -4.66336
N 10.42496 2.91629 0.54280
C 11.43698 3.73880 0.19558
C 10.86341 5.09322 0.16852
C 9.47068 5.02330 0.68828
C 9.42568 3.64614 1.13716
C 11.59751 6.27672 -0.39171
C 8.36677 6.03289 0.77942
O 7.31751 5.82151 1.48456
C 8.59197 7.31418 0.09454
N 9.06030 0.82887 2.27127
C 8.30115 1.89388 2.58328
C 7.14805 1.49938 3.47498
C 7.15201 -0.09966 3.50022
C 8.41653 -0.36299 2.65344
C 7.20249 2.03085 4.90709
C 5.83193 -0.81313 3.09894
C 5.54687 -0.58428 1.63206
N 10.75153 -1.18772 1.00221
C 9.98516 -2.05501 1.81127
C 10.59803 -3.39570 1.71450
C 11.70076 -3.20904 0.86737
C 11.78202 -1.84396 0.48077
C 10.15620 -4.56364 2.39774
C 12.82074 -3.85424 0.22080
O 13.20899 -5.01659 0.11151
C 13.77883 -2.73168 -0.36937
C 14.12397 -3.11186 -1.78318
O 13.24446 -3.14332 -2.66187
O 15.46235 -3.16316 -1.91146
C 15.85421 -3.52565 -3.29958
H 13.49320 4.19364 -0.01243
H 7.74997 3.76084 2.40409
H 8.40646 -2.45657 2.99364
H 15.59008 -0.20669 -0.79629
H 15.12881 2.54823 -1.16334
H 15.78163 0.90523 1.24799
H 14.85502 2.38302 1.58240
H 16.39537 2.53960 0.79345
H 14.04942 1.32372 -2.90579
H 14.03433 -0.47631 -2.97550
H 16.74146 0.37513 -2.74310
H 15.96778 1.60488 -3.67798
H 12.66044 6.05420 -0.54681
H 11.59239 7.05184 0.38226
H 11.12827 6.67500 -1.29385
H 9.48826 7.78385 0.49270
H 7.65730 7.86885 0.19759
H 8.78538 7.11503 -0.96544
H 6.20642 1.84202 3.06382
H 7.36082 -0.49076 4.50684
H 6.31123 2.62372 5.18681
H 8.10219 2.62142 5.01804
H 7.32818 1.27150 5.67702
H 4.98906 -0.38749 3.64900
H 5.84001 -1.87978 3.29692
H 5.06197 0.39649 1.62498
H 4.88335 -1.35543 1.24590
H 6.47741 -0.49608 1.05938
H 10.18738 -5.37389 1.68149
H 9.15643 -4.43114 2.80601
H 10.91465 -4.62923 3.18242
H 14.66174 -2.68559 0.26932
H 16.50037 -4.40614 -3.22955
H 16.29655 -2.60950 -3.73402
H 15.07609 -3.88650 -3.96198

