%nproc=24
%mem=175gb
#p cam-b3lyp/Def2SVP td=(nstates=5)

TDDFT excited states in gaussian

0 1
Mg 0.00000 0.00000 0.00000
C -0.21700 -2.21800 2.80100
C -1.25500 2.44200 2.02600
C -0.24500 1.85000 -2.56400
C 0.14600 -2.82400 -2.03700
N -0.61700 -0.00900 2.12600
C -0.59400 -0.90800 3.10500
C -0.93600 -0.30900 4.50200
C -1.77300 0.96400 4.03200
C -1.15500 1.16800 2.66000
C -3.26300 0.68500 3.86300
C 0.34500 0.11000 5.29900
C 0.12400 0.39700 6.78700
H 1.16800 0.03300 7.73300
N -0.18500 1.96100 -0.15200
C -0.70300 2.80000 0.77700
C -0.62000 4.15600 0.19300
C -0.18700 4.01500 -1.22500
C -0.21400 2.58300 -1.38000
C -0.88700 5.40600 0.97400
C 0.18100 5.01300 -2.27700
O 0.30300 4.69000 -3.50800
C 0.31000 6.41400 -1.83700
N -0.26500 -0.41300 -2.02900
C -0.27900 0.56900 -2.93700
C -0.19600 0.02400 -4.33200
C 0.12400 -1.53300 -4.18000
C 0.08600 -1.63200 -2.63500
C -1.45100 0.20500 -5.19700
C 1.37300 -2.07000 -4.92300
C 2.62600 -1.49000 -4.30600
N 0.15000 -2.14400 0.30300
C 0.17300 -3.13600 -0.68800
C 0.17300 -4.43800 0.00400
C 0.13300 -4.11100 1.35800
C 0.08300 -2.69500 1.50200
C 0.14900 -5.71500 -0.62300
C 0.09600 -4.62900 2.71600
O 0.20800 -5.74700 3.22100
C -0.25500 -3.42800 3.70100
C 0.71700 -3.48200 4.84800
O 1.93100 -3.25500 4.66900
O 0.03800 -3.55600 6.00300
C 0.94300 -3.58300 7.18300
H -1.85900 3.22000 2.49700
H -0.21800 2.45300 -3.47400
H 0.27600 -3.74700 -2.60500
H -1.55400 -0.94900 5.13200
H -1.58500 1.83100 4.66500
H -3.48400 -0.37700 3.96900
H -3.51100 1.02700 2.85800
H -3.85200 1.30100 4.54300
H 0.66900 1.09600 4.96600
H 1.13000 -0.63900 5.18900
H -0.84400 0.02600 7.12500
H 0.06200 1.47700 6.92100
H -1.34400 5.18600 1.93800
H -1.65100 5.96300 0.43200
H 0.00700 6.02000 1.08400
H -0.63500 6.74400 -1.40500
H 0.66500 6.97000 -2.70400
H 1.04800 6.46600 -1.03600
H 0.60800 0.50100 -4.89100
H -0.69200 -2.15600 -4.54700
H -1.26700 0.74000 -6.12900
H -2.20400 0.71400 -4.59600
H -1.96700 -0.72000 -5.45300
H 1.35600 -1.75900 -5.96700
H 1.45200 -3.15700 -4.90200
H 2.71400 -0.52200 -4.79800
H 3.48700 -2.12100 -4.52900
H 2.49500 -1.30300 -3.24000
H 0.86700 -6.33300 -0.08400
H 0.40400 -5.64200 -1.68000
H -0.89100 -5.99900 -0.46300
H -1.28300 -3.58100 4.02800
H 0.69800 -4.47800 7.75500
H 0.83300 -2.61900 7.68000
H 2.00000 -3.75400 6.97600
Mg 31.53886 2.84449 2.40167
C 31.26513 0.99475 5.46477
C 30.28569 5.53217 4.08705
C 31.34355 4.36864 -0.37434
C 31.67176 -0.21091 0.73058
N 30.89681 3.10582 4.50208
C 30.89616 2.35034 5.59001
C 30.55356 3.10940 6.89998
C 29.72720 4.32953 6.26179
C 30.36175 4.35447 4.87276
C 28.24465 4.03522 6.10441
C 31.83541 3.61434 7.65092
C 31.59485 4.09022 9.08529
H 32.63046 3.84101 10.08422
N 31.37785 4.78328 2.00960
C 30.86548 5.73668 2.81569
C 30.95540 6.99473 2.05847
C 31.41073 6.67931 0.67720
C 31.37426 5.23101 0.71190
C 30.70103 8.33782 2.67881
C 31.80061 7.53904 -0.48687
O 31.93466 7.05526 -1.66620
C 31.92962 8.97973 -0.22369
N 31.29853 2.18476 0.44480
C 31.29869 3.05256 -0.58226
C 31.38929 2.33123 -1.90584
C 31.69495 0.80403 -1.54279
C 31.63718 0.89375 -0.00201
C 30.14459 2.40458 -2.79000
C 32.94755 0.16168 -2.19933
C 34.20262 0.80647 -1.65671
N 31.66729 0.76436 2.97143
C 31.68476 -0.35594 2.11195
C 31.66366 -1.56073 2.96661
C 31.61172 -1.05378 4.27382
C 31.58081 0.36647 4.23581
C 31.64355 -2.90734 2.50577
C 31.56528 -1.39730 5.67686
O 31.65298 -2.44346 6.31843
C 31.21114 -0.08840 6.50616
C 32.16938 0.00258 7.66202
O 33.38384 0.18234 7.46356
O 31.47020 0.08024 8.80897
C 32.37681 0.18328 9.98339
H 29.69041 6.36651 4.45908
H 31.38728 4.84545 -1.35629
H 31.81004 -1.20013 0.28899
H 29.92866 2.55953 7.59346
H 29.92577 5.25935 6.78845
H 28.01080 3.00742 6.33914
H 28.01033 4.24980 5.06996
H 27.65539 4.73905 6.69916
H 32.17055 4.55470 7.19469
H 32.60202 2.86409 7.64288
H 30.61335 3.77951 9.46352
H 31.54885 5.18196 9.08558
H 30.22396 8.24290 3.66207
H 29.94928 8.83892 2.05941
H 31.59770 8.95994 2.71883
H 30.98536 9.36363 0.15505
H 32.30126 9.41453 -1.15358
H 32.66993 9.12529 0.57090
H 32.20458 2.72036 -2.50332
H 30.87366 0.13996 -1.84991
H 30.34613 2.82481 -3.79342
H 29.39471 2.99092 -2.27578
H 29.63122 1.45703 -2.94427
H 32.94590 0.34395 -3.27680
H 33.00866 -0.91176 -2.05440
H 34.30011 1.70911 -2.26730
H 35.05877 0.14759 -1.78678
H 34.06349 1.12516 -0.61713
H 32.34229 -3.45767 3.12173
H 31.90591 -2.97081 1.45178
H 30.59449 -3.15866 2.68351
H 30.17647 -0.18107 6.83848
H 32.11287 -0.63265 10.66331
H 32.25655 1.21498 10.36402
H 33.43090 -0.00916 9.82123

