%nproc=24
%mem=175gb
#p cam-b3lyp/Def2SVP td=(nstates=5)

TDDFT excited states in gaussian

0 1
Mg 31.54065 2.83460 2.38992
C 31.39176 4.74372 -0.64523
C 31.05309 0.04757 0.48483
C 31.21693 1.17645 5.07566
C 30.87451 5.78771 4.11651
N 31.27189 2.55963 0.21175
C 31.29521 3.35150 -0.84973
C 31.29110 2.60388 -2.21011
C 30.61311 1.23041 -1.72764
C 31.03063 1.25453 -0.25870
C 29.09504 1.25312 -1.79313
C 32.73910 2.36558 -2.76556
C 32.80157 1.91996 -4.22818
H 33.91082 2.39140 -5.05267
N 31.67528 0.88192 2.71781
C 31.46696 -0.10923 1.82590
C 31.66950 -1.36485 2.56518
C 31.85261 -1.03703 4.00522
C 31.56162 0.38255 3.99147
C 31.75494 -2.70244 1.88917
C 32.21543 -1.86668 5.19948
O 32.08543 -1.42046 6.39397
C 32.63883 -3.24918 4.93315
N 30.90057 3.35330 4.29874
C 30.90592 2.45362 5.29798
C 30.66972 3.11937 6.63266
C 30.74557 4.69127 6.34810
C 30.93198 4.66223 4.81520
C 29.34233 2.78943 7.31499
C 31.75182 5.51288 7.19963
C 33.16831 5.12297 6.84342
N 31.37500 4.92856 1.88403
C 31.06409 5.99478 2.75615
C 30.95238 7.21447 1.93013
C 31.18521 6.76559 0.62140
C 31.40512 5.36164 0.62864
C 30.62278 8.51461 2.40670
C 31.28444 7.15846 -0.76587
O 31.27578 8.23159 -1.36757
C 31.29740 5.84642 -1.66296
C 32.41567 5.97679 -2.66046
O 33.60007 6.00378 -2.28221
O 31.91816 5.82955 -3.90190
C 32.99111 5.93986 -4.92583
H 30.67891 -0.86054 0.01132
H 31.20094 0.67098 6.04402
H 30.76610 6.76497 4.59179
H 30.68629 3.06644 -2.98083
H 31.05096 0.37440 -2.23449
H 28.71715 2.23358 -2.04224
H 28.75371 0.95449 -0.81061
H 28.73597 0.48444 -2.48345
H 33.16723 1.47890 -2.28054
H 33.34856 3.23737 -2.62708
H 31.84661 2.07065 -4.74614
H 32.95332 0.83817 -4.25517
H 31.41836 -2.64840 0.84648
H 31.02290 -3.35482 2.37743
H 32.74491 -3.15545 1.97529
H 31.84515 -3.77510 4.40786
H 32.94187 -3.65356 5.90089
H 33.50186 -3.22692 4.25839
H 31.44491 2.85257 7.34048
H 29.78212 5.18671 6.53818
H 29.46650 2.36628 8.32968
H 28.79405 2.10456 6.68185
H 28.64984 3.62450 7.40615
H 31.62465 5.28484 8.26075
H 31.63940 6.58584 7.08510
H 33.33582 4.22481 7.44537
H 33.86336 5.91509 7.11450
H 33.24313 4.83193 5.78921
H 31.29391 9.20597 1.91464
H 30.71164 8.57557 3.48936
H 29.58334 8.58604 2.07547
H 30.32320 5.77129 -2.14760
H 32.68751 6.72670 -5.62325
H 33.11574 4.92123 -5.33889
H 33.95791 6.30645 -4.60122

