%nproc=24
%mem=175gb
#p cam-b3lyp/Def2SVP td=(nstates=5)

TDDFT excited states in gaussian

0 1
Mg 0.00000 0.00000 0.00000
C -0.21700 -2.21800 2.80100
C -1.25500 2.44200 2.02600
C -0.24500 1.85000 -2.56400
C 0.14600 -2.82400 -2.03700
N -0.61700 -0.00900 2.12600
C -0.59400 -0.90800 3.10500
C -0.93600 -0.30900 4.50200
C -1.77300 0.96400 4.03200
C -1.15500 1.16800 2.66000
C -3.26300 0.68500 3.86300
C 0.34500 0.11000 5.29900
C 0.12400 0.39700 6.78700
H 1.16800 0.03300 7.73300
N -0.18500 1.96100 -0.15200
C -0.70300 2.80000 0.77700
C -0.62000 4.15600 0.19300
C -0.18700 4.01500 -1.22500
C -0.21400 2.58300 -1.38000
C -0.88700 5.40600 0.97400
C 0.18100 5.01300 -2.27700
O 0.30300 4.69000 -3.50800
C 0.31000 6.41400 -1.83700
N -0.26500 -0.41300 -2.02900
C -0.27900 0.56900 -2.93700
C -0.19600 0.02400 -4.33200
C 0.12400 -1.53300 -4.18000
C 0.08600 -1.63200 -2.63500
C -1.45100 0.20500 -5.19700
C 1.37300 -2.07000 -4.92300
C 2.62600 -1.49000 -4.30600
N 0.15000 -2.14400 0.30300
C 0.17300 -3.13600 -0.68800
C 0.17300 -4.43800 0.00400
C 0.13300 -4.11100 1.35800
C 0.08300 -2.69500 1.50200
C 0.14900 -5.71500 -0.62300
C 0.09600 -4.62900 2.71600
O 0.20800 -5.74700 3.22100
C -0.25500 -3.42800 3.70100
C 0.71700 -3.48200 4.84800
O 1.93100 -3.25500 4.66900
O 0.03800 -3.55600 6.00300
C 0.94300 -3.58300 7.18300
H -1.85900 3.22000 2.49700
H -0.21800 2.45300 -3.47400
H 0.27600 -3.74700 -2.60500
H -1.55400 -0.94900 5.13200
H -1.58500 1.83100 4.66500
H -3.48400 -0.37700 3.96900
H -3.51100 1.02700 2.85800
H -3.85200 1.30100 4.54300
H 0.66900 1.09600 4.96600
H 1.13000 -0.63900 5.18900
H -0.84400 0.02600 7.12500
H 0.06200 1.47700 6.92100
H -1.34400 5.18600 1.93800
H -1.65100 5.96300 0.43200
H 0.00700 6.02000 1.08400
H -0.63500 6.74400 -1.40500
H 0.66500 6.97000 -2.70400
H 1.04800 6.46600 -1.03600
H 0.60800 0.50100 -4.89100
H -0.69200 -2.15600 -4.54700
H -1.26700 0.74000 -6.12900
H -2.20400 0.71400 -4.59600
H -1.96700 -0.72000 -5.45300
H 1.35600 -1.75900 -5.96700
H 1.45200 -3.15700 -4.90200
H 2.71400 -0.52200 -4.79800
H 3.48700 -2.12100 -4.52900
H 2.49500 -1.30300 -3.24000
H 0.86700 -6.33300 -0.08400
H 0.40400 -5.64200 -1.68000
H -0.89100 -5.99900 -0.46300
H -1.28300 -3.58100 4.02800
H 0.69800 -4.47800 7.75500
H 0.83300 -2.61900 7.68000
H 2.00000 -3.75400 6.97600
Mg 15.77260 1.42689 1.20170
C 15.35016 0.84664 4.71794
C 14.56615 4.57366 1.72792
C 15.70726 1.82097 -1.94597
C 15.84682 -2.03190 0.78107
N 15.08164 2.45987 3.03140
C 15.02468 2.16018 4.32031
C 14.67203 3.35689 5.24393
C 13.90624 4.27236 4.16953
C 14.57972 3.76839 2.89474
C 12.41940 3.97293 4.07464
C 15.94907 4.07570 5.80473
C 15.68515 5.05311 6.95224
H 16.68334 5.16836 8.01186
N 15.68936 3.08650 0.11665
C 15.18783 4.28119 0.49410
C 15.34204 5.16802 -0.66947
C 15.82456 4.35463 -1.81851
C 15.73733 3.02287 -1.25381
C 15.11683 6.65046 -0.59823
C 16.27606 4.71459 -3.20154
O 16.42620 3.82641 -4.11336
C 16.44718 6.14738 -3.48320
N 15.56433 0.09601 -0.38188
C 15.62296 0.52254 -1.65567
C 15.72554 -0.63868 -2.61558
C 15.96825 -1.92981 -1.70362
C 15.87069 -1.27574 -0.30788
C 14.50922 -0.87034 -3.51185
C 17.21582 -2.79632 -2.02827
C 18.47671 -2.02401 -1.71354
N 15.81347 -0.29763 2.50263
C 15.81633 -1.65636 2.11801
C 15.72999 -2.45920 3.35511
C 15.65912 -1.50401 4.38033
C 15.67815 -0.19807 3.82029
C 15.67642 -3.88001 3.42271
C 15.56182 -1.30356 5.80828
O 15.59556 -2.04016 6.79318
C 15.22994 0.22651 6.08235
C 16.15817 0.71745 7.15933
O 17.38315 0.78476 6.95562
O 15.43038 1.22866 8.16897
C 16.30692 1.73877 9.25676
H 13.98979 5.49912 1.74291
H 15.79470 1.90003 -3.03206
H 15.96324 -3.11703 0.74092
H 14.00951 3.11594 6.06660
H 14.12192 5.32645 4.32359
H 12.14389 3.10999 4.66249
H 12.22152 3.79501 3.02572
H 11.83837 4.85934 4.34483
H 16.32895 4.77335 5.04730
H 16.68935 3.35917 6.10342
H 14.68339 4.92555 7.38018
H 15.67674 6.06838 6.54829
H 14.60957 6.93604 0.33158
H 14.40032 6.90332 -1.38724
H 16.03291 7.22373 -0.75578
H 15.50649 6.66445 -3.30940
H 16.85932 6.19955 -4.49280
H 17.16962 6.56023 -2.77029
H 16.57006 -0.51570 -3.28248
H 15.13347 -2.64239 -1.77577
H 14.75297 -0.85520 -4.59093
H 13.76591 -0.11936 -3.27934
H 13.96805 -1.79645 -3.32566
H 17.25046 -3.02518 -3.09625
H 17.23590 -3.74124 -1.49561
H 18.62218 -1.41329 -2.60962
H 19.31299 -2.70270 -1.55842
H 18.31972 -1.34072 -0.87086
H 16.33838 -4.17872 4.22463
H 15.96571 -4.33421 2.47731
H 14.61480 -4.02504 3.63994
H 14.18383 0.28568 6.38522
H 15.99624 1.23784 10.17883
H 16.21167 2.84045 9.22532
H 17.35789 1.47723 9.21777

