%nproc=24
%mem=175gb
#p cam-b3lyp/Def2SVP td=(nstates=5)

TDDFT excited states in gaussian

0 1
Mg 0.00000 0.00000 0.00000
C -0.21700 -2.21800 2.80100
C -1.25500 2.44200 2.02600
C -0.24500 1.85000 -2.56400
C 0.14600 -2.82400 -2.03700
N -0.61700 -0.00900 2.12600
C -0.59400 -0.90800 3.10500
C -0.93600 -0.30900 4.50200
C -1.77300 0.96400 4.03200
C -1.15500 1.16800 2.66000
C -3.26300 0.68500 3.86300
C 0.34500 0.11000 5.29900
C 0.12400 0.39700 6.78700
H 1.16800 0.03300 7.73300
N -0.18500 1.96100 -0.15200
C -0.70300 2.80000 0.77700
C -0.62000 4.15600 0.19300
C -0.18700 4.01500 -1.22500
C -0.21400 2.58300 -1.38000
C -0.88700 5.40600 0.97400
C 0.18100 5.01300 -2.27700
O 0.30300 4.69000 -3.50800
C 0.31000 6.41400 -1.83700
N -0.26500 -0.41300 -2.02900
C -0.27900 0.56900 -2.93700
C -0.19600 0.02400 -4.33200
C 0.12400 -1.53300 -4.18000
C 0.08600 -1.63200 -2.63500
C -1.45100 0.20500 -5.19700
C 1.37300 -2.07000 -4.92300
C 2.62600 -1.49000 -4.30600
N 0.15000 -2.14400 0.30300
C 0.17300 -3.13600 -0.68800
C 0.17300 -4.43800 0.00400
C 0.13300 -4.11100 1.35800
C 0.08300 -2.69500 1.50200
C 0.14900 -5.71500 -0.62300
C 0.09600 -4.62900 2.71600
O 0.20800 -5.74700 3.22100
C -0.25500 -3.42800 3.70100
C 0.71700 -3.48200 4.84800
O 1.93100 -3.25500 4.66900
O 0.03800 -3.55600 6.00300
C 0.94300 -3.58300 7.18300
H -1.85900 3.22000 2.49700
H -0.21800 2.45300 -3.47400
H 0.27600 -3.74700 -2.60500
H -1.55400 -0.94900 5.13200
H -1.58500 1.83100 4.66500
H -3.48400 -0.37700 3.96900
H -3.51100 1.02700 2.85800
H -3.85200 1.30100 4.54300
H 0.66900 1.09600 4.96600
H 1.13000 -0.63900 5.18900
H -0.84400 0.02600 7.12500
H 0.06200 1.47700 6.92100
H -1.34400 5.18600 1.93800
H -1.65100 5.96300 0.43200
H 0.00700 6.02000 1.08400
H -0.63500 6.74400 -1.40500
H 0.66500 6.97000 -2.70400
H 1.04800 6.46600 -1.03600
H 0.60800 0.50100 -4.89100
H -0.69200 -2.15600 -4.54700
H -1.26700 0.74000 -6.12900
H -2.20400 0.71400 -4.59600
H -1.96700 -0.72000 -5.45300
H 1.35600 -1.75900 -5.96700
H 1.45200 -3.15700 -4.90200
H 2.71400 -0.52200 -4.79800
H 3.48700 -2.12100 -4.52900
H 2.49500 -1.30300 -3.24000
H 0.86700 -6.33300 -0.08400
H 0.40400 -5.64200 -1.68000
H -0.89100 -5.99900 -0.46300
H -1.28300 -3.58100 4.02800
H 0.69800 -4.47800 7.75500
H 0.83300 -2.61900 7.68000
H 2.00000 -3.75400 6.97600
Mg 31.53985 2.84136 2.40258
C 30.54679 0.73679 5.13455
C 31.03077 5.50819 4.46739
C 31.97218 4.73809 -0.10400
C 30.87141 0.16163 0.27704
N 30.87508 2.97698 4.50780
C 30.58553 2.10764 5.46423
C 30.40128 2.73698 6.87119
C 30.01088 4.22751 6.41865
C 30.70889 4.26135 5.06060
C 28.51992 4.41725 6.19422
C 31.72621 2.72031 7.71161
C 31.54841 3.03405 9.19879
H 32.40158 2.34425 10.16251
N 31.98018 4.77453 2.31569
C 31.72208 5.71079 3.25274
C 32.22415 6.97951 2.70279
C 32.65069 6.74502 1.29646
C 32.18812 5.38522 1.10395
C 32.33809 8.23272 3.52127
C 33.34683 7.60694 0.28716
O 33.40502 7.28086 -0.95103
C 33.87712 8.88880 0.77410
N 31.23704 2.57392 0.36319
C 31.55538 3.54051 -0.51560
C 31.51120 3.02429 -1.93403
C 31.33160 1.44007 -1.80926
C 31.20812 1.31949 -0.27446
C 30.39985 3.59437 -2.81511
C 32.37798 0.55355 -2.53854
C 33.73128 0.70689 -1.88243
N 31.01599 0.75902 2.64237
C 30.75625 -0.17852 1.61884
C 30.32949 -1.43173 2.27440
C 30.34856 -1.12689 3.64378
C 30.73881 0.22715 3.82759
C 29.94288 -2.62898 1.60864
C 30.11703 -1.63953 4.97506
O 29.85378 -2.74499 5.44663
C 30.11292 -0.41882 5.99301
C 30.98262 -0.78729 7.16364
O 32.20607 -0.95328 7.01459
O 30.26800 -0.67004 8.29764
C 31.09084 -1.01434 9.48768
H 30.68529 6.41973 4.95587
H 32.21439 5.31641 -0.99863
H 30.73973 -0.74889 -0.31144
H 29.60098 2.30568 7.46048
H 30.44117 4.96872 7.08710
H 27.98037 3.48427 6.26187
H 28.42308 4.83925 5.20246
H 28.12813 5.17176 6.88237
H 32.35031 3.57246 7.41313
H 32.23745 1.78413 7.59841
H 30.49763 2.98074 9.50855
H 31.82537 4.07730 9.36889
H 31.79469 8.14427 4.47011
H 31.80639 9.02011 2.97614
H 33.37377 8.54472 3.67190
H 33.06596 9.47927 1.19343
H 34.41657 9.32168 -0.07058
H 34.57719 8.68934 1.59308
H 32.43997 3.23305 -2.45066
H 30.37191 1.10448 -2.22906
H 30.77729 4.07513 -3.73733
H 29.82527 4.29788 -2.22734
H 29.64118 2.87706 -3.12345
H 32.49623 0.88154 -3.57420
H 32.11188 -0.49793 -2.56212
H 34.12710 1.61701 -2.34295
H 34.36228 -0.15237 -2.10049
H 33.62831 0.89900 -0.80812
H 30.40977 -3.44641 2.14185
H 30.23929 -2.61530 0.56187
H 28.85744 -2.57708 1.72861
H 29.07832 -0.24395 6.29066
H 30.55749 -1.80280 10.02763
H 31.25594 -0.06036 10.02287
H 32.04972 -1.48846 9.31386

