%nproc=24
%mem=175gb
#p cam-b3lyp/Def2SVP td=(nstates=5)

TDDFT excited states in gaussian

0 1
Mg 0.00000 0.00000 0.00000
C -0.21700 -2.21800 2.80100
C -1.25500 2.44200 2.02600
C -0.24500 1.85000 -2.56400
C 0.14600 -2.82400 -2.03700
N -0.61700 -0.00900 2.12600
C -0.59400 -0.90800 3.10500
C -0.93600 -0.30900 4.50200
C -1.77300 0.96400 4.03200
C -1.15500 1.16800 2.66000
C -3.26300 0.68500 3.86300
C 0.34500 0.11000 5.29900
C 0.12400 0.39700 6.78700
H 1.16800 0.03300 7.73300
N -0.18500 1.96100 -0.15200
C -0.70300 2.80000 0.77700
C -0.62000 4.15600 0.19300
C -0.18700 4.01500 -1.22500
C -0.21400 2.58300 -1.38000
C -0.88700 5.40600 0.97400
C 0.18100 5.01300 -2.27700
O 0.30300 4.69000 -3.50800
C 0.31000 6.41400 -1.83700
N -0.26500 -0.41300 -2.02900
C -0.27900 0.56900 -2.93700
C -0.19600 0.02400 -4.33200
C 0.12400 -1.53300 -4.18000
C 0.08600 -1.63200 -2.63500
C -1.45100 0.20500 -5.19700
C 1.37300 -2.07000 -4.92300
C 2.62600 -1.49000 -4.30600
N 0.15000 -2.14400 0.30300
C 0.17300 -3.13600 -0.68800
C 0.17300 -4.43800 0.00400
C 0.13300 -4.11100 1.35800
C 0.08300 -2.69500 1.50200
C 0.14900 -5.71500 -0.62300
C 0.09600 -4.62900 2.71600
O 0.20800 -5.74700 3.22100
C -0.25500 -3.42800 3.70100
C 0.71700 -3.48200 4.84800
O 1.93100 -3.25500 4.66900
O 0.03800 -3.55600 6.00300
C 0.94300 -3.58300 7.18300
H -1.85900 3.22000 2.49700
H -0.21800 2.45300 -3.47400
H 0.27600 -3.74700 -2.60500
H -1.55400 -0.94900 5.13200
H -1.58500 1.83100 4.66500
H -3.48400 -0.37700 3.96900
H -3.51100 1.02700 2.85800
H -3.85200 1.30100 4.54300
H 0.66900 1.09600 4.96600
H 1.13000 -0.63900 5.18900
H -0.84400 0.02600 7.12500
H 0.06200 1.47700 6.92100
H -1.34400 5.18600 1.93800
H -1.65100 5.96300 0.43200
H 0.00700 6.02000 1.08400
H -0.63500 6.74400 -1.40500
H 0.66500 6.97000 -2.70400
H 1.04800 6.46600 -1.03600
H 0.60800 0.50100 -4.89100
H -0.69200 -2.15600 -4.54700
H -1.26700 0.74000 -6.12900
H -2.20400 0.71400 -4.59600
H -1.96700 -0.72000 -5.45300
H 1.35600 -1.75900 -5.96700
H 1.45200 -3.15700 -4.90200
H 2.71400 -0.52200 -4.79800
H 3.48700 -2.12100 -4.52900
H 2.49500 -1.30300 -3.24000
H 0.86700 -6.33300 -0.08400
H 0.40400 -5.64200 -1.68000
H -0.89100 -5.99900 -0.46300
H -1.28300 -3.58100 4.02800
H 0.69800 -4.47800 7.75500
H 0.83300 -2.61900 7.68000
H 2.00000 -3.75400 6.97600
Mg 31.52415 2.84137 2.40125
C 33.07295 4.83762 4.94983
C 30.48330 0.74678 4.88397
C 30.53839 0.82934 0.15459
C 33.60886 4.41677 0.09521
N 31.80411 2.89263 4.59470
C 32.35772 3.73250 5.45638
C 32.06410 3.41160 6.94647
C 31.75694 1.84232 6.79849
C 31.28368 1.82175 5.34650
C 32.99855 0.97306 6.90852
C 30.81682 4.19216 7.49146
C 30.65673 4.16664 9.01313
H 30.12473 5.35353 9.67702
N 30.24034 1.33139 2.50308
C 29.92039 0.60765 3.59630
C 28.94709 -0.39778 3.14248
C 28.84302 -0.31435 1.66028
C 29.90858 0.62507 1.37367
C 28.16596 -1.26025 4.09085
C 27.94291 -0.98080 0.66436
O 28.18532 -0.94249 -0.59366
C 26.82134 -1.75805 1.21157
N 32.14578 2.49446 0.44790
C 31.51248 1.59951 -0.33051
C 31.95425 1.71902 -1.76959
C 32.84158 3.04778 -1.83766
C 32.83257 3.43497 -0.34254
C 32.75918 0.54118 -2.31837
C 32.42449 4.11988 -2.88136
C 31.09337 4.72438 -2.49654
N 32.93386 4.47814 2.44323
C 33.71756 4.95662 1.37041
C 34.60569 6.00475 1.91360
C 34.29076 6.04763 3.28016
C 33.29220 5.07956 3.57210
C 35.58197 6.73220 1.17615
C 34.58357 6.68435 4.54410
O 35.27997 7.63525 4.89703
C 33.89847 5.84206 5.70495
C 33.17762 6.80158 6.61172
O 32.20134 7.45083 6.19704
O 33.61981 6.63411 7.87140
C 32.92643 7.55625 8.80985
H 30.30225 -0.09209 5.55658
H 30.15594 0.23578 -0.67901
H 34.21849 5.02328 -0.57797
H 32.90067 3.56506 7.61757
H 30.95634 1.53199 7.46490
H 33.90155 1.56381 6.95023
H 32.99737 0.34551 6.02692
H 32.90921 0.29443 7.76164
H 29.90390 3.65837 7.19752
H 30.82183 5.20753 7.14561
H 31.56667 3.81952 9.51756
H 29.90491 3.41659 9.27043
H 28.57584 -1.21388 5.10733
H 28.32329 -2.29925 3.78167
H 27.09560 -1.04425 4.07239
H 27.20666 -2.53683 1.86540
H 26.24132 -2.08341 0.34578
H 26.20941 -1.09733 1.83577
H 31.10153 1.83179 -2.42780
H 33.88696 2.82671 -2.09873
H 32.30729 0.08596 -3.21984
H 32.86520 -0.19528 -1.53293
H 33.79528 0.76540 -2.56621
H 32.28414 3.65907 -3.86223
H 33.15408 4.91398 -3.00004
H 30.37141 4.00432 -2.89325
H 30.96926 5.70235 -2.95721
H 30.97165 4.74722 -1.40736
H 35.49684 7.76629 1.48258
H 35.43453 6.62104 0.10392
H 36.49431 6.23659 1.51861
H 34.68843 5.30058 6.22682
H 33.70265 8.12731 9.32855
H 32.27314 6.91487 9.43083
H 32.32933 8.35234 8.38070

