%nproc=24
%mem=175gb
#p cam-b3lyp/Def2SVP td=(nstates=5)

TDDFT excited states in gaussian

0 1
Mg 13.13795 1.18746 1.00757
C 11.28197 -1.27681 2.84108
C 10.60885 3.37538 1.67934
C 14.52433 3.24354 -0.97181
C 14.90750 -1.43478 -0.45470
N 11.24337 0.96073 2.12624
C 10.67348 -0.00437 2.83204
C 9.42143 0.43954 3.63508
C 9.00375 1.71016 2.74630
C 10.37287 2.06664 2.17089
C 8.07762 1.35995 1.59348
C 9.77219 0.85785 5.10613
C 8.56692 1.00601 6.03733
H 8.71781 0.62063 7.43775
N 12.91001 3.15078 0.82865
C 11.82688 3.87887 1.17215
C 12.15047 5.27078 0.82280
C 13.44776 5.28196 0.09368
C 13.67238 3.85929 -0.06651
C 11.30401 6.43470 1.24968
C 14.33260 6.38993 -0.39177
O 15.29442 6.17372 -1.21090
C 13.98209 7.74875 0.04669
N 14.36823 0.93827 -0.64974
C 14.87665 2.00016 -1.29922
C 15.94609 1.57960 -2.27893
C 16.22099 0.03331 -1.97729
C 15.15287 -0.20574 -0.88763
C 15.60032 1.75581 -3.75737
C 17.68902 -0.37470 -1.67545
C 18.13012 0.22199 -0.35834
N 13.25244 -0.95309 1.27774
C 14.03996 -1.86488 0.54118
C 13.69285 -3.22080 1.01388
C 12.70300 -3.00346 1.98415
C 12.43654 -1.61183 2.09311
C 14.23468 -4.43935 0.51621
C 11.81533 -3.63562 2.93342
O 11.65736 -4.78506 3.34279
C 10.76552 -2.55529 3.44056
C 10.69267 -2.64666 4.94018
O 11.67729 -2.35103 5.63998
O 9.41535 -2.85651 5.30731
C 9.29029 -2.94335 6.78672
H 9.77180 4.07290 1.63816
H 15.10907 3.91732 -1.60234
H 15.48500 -2.29843 -0.79128
H 8.61412 -0.28274 3.65371
H 8.62828 2.51984 3.36661
H 7.94728 0.29285 1.49127
H 8.54290 1.77089 0.70709
H 7.12383 1.88386 1.70365
H 10.13823 1.89262 5.10652
H 10.48037 0.17721 5.53721
H 7.65983 0.56003 5.61160
H 8.32650 2.06813 6.12743
H 10.32906 6.10516 1.62951
H 11.06468 7.00469 0.34541
H 11.81625 7.09137 1.95613
H 12.97050 7.98278 -0.27637
H 14.78065 8.39189 -0.32822
H 13.97599 7.77223 1.14214
H 16.86027 2.13726 -2.11649
H 15.94675 -0.60343 -2.83122
H 16.32531 2.38912 -4.30270
H 14.60395 2.17155 -3.82770
H 15.50496 0.83040 -4.32282
H 18.35882 0.02881 -2.43880
H 17.84193 -1.44840 -1.64781
H 18.43048 1.23692 -0.63548
H 18.96644 -0.33813 0.05501
H 17.28731 0.30608 0.33754
H 14.44680 -5.06009 1.37656
H 15.12881 -4.26344 -0.07822
H 13.39820 -4.78975 -0.09436
H 9.80834 -2.78237 2.96960
H 8.80633 -3.89897 7.01089
H 8.75785 -2.02431 7.09597
H 10.20421 -3.02884 7.36280

