%nproc=24
%mem=175gb
#p cam-b3lyp/Def2SVP td=(nstates=5)

TDDFT excited states in gaussian

0 1
Mg 10.51760 0.94557 0.80659
C 10.59023 -2.60471 1.32548
C 9.36516 1.23883 4.00354
C 10.01454 4.02617 0.23712
C 10.56627 0.30604 -2.61895
N 10.07596 -0.56133 2.36430
C 10.20037 -1.87587 2.46839
C 9.96713 -2.43278 3.89843
C 9.05157 -1.24498 4.47269
C 9.54743 -0.10399 3.58673
C 7.56882 -1.44596 4.20737
C 11.30239 -2.57276 4.71052
C 11.19004 -3.39533 5.99602
H 12.32380 -4.22610 6.39208
N 10.26941 2.46034 2.06455
C 9.81334 2.39817 3.33317
C 9.79690 3.78516 3.82322
C 10.12397 4.68820 2.68644
C 10.12834 3.74071 1.58993
C 9.56945 4.13615 5.26492
C 10.37673 6.16285 2.59856
O 10.40808 6.77473 1.47275
C 10.49355 6.88511 3.87378
N 10.10550 2.00919 -0.93158
C 9.98361 3.34807 -0.91029
C 9.96384 3.91633 -2.30925
C 10.34253 2.69781 -3.27331
C 10.43231 1.56556 -2.22673
C 8.63772 4.52840 -2.75997
C 11.54160 2.90976 -4.23767
C 12.82639 3.01599 -3.44810
N 10.75425 -0.79823 -0.44689
C 10.71704 -0.84599 -1.85771
C 10.81003 -2.26782 -2.24780
C 10.87220 -2.95577 -1.02659
C 10.80118 -2.02965 0.04894
C 10.77996 -2.76867 -3.57985
C 10.97104 -4.25563 -0.40266
O 11.14751 -5.40329 -0.80943
C 10.66549 -4.09595 1.14896
C 11.72875 -4.83885 1.91061
O 12.91317 -4.46154 1.87339
O 11.14244 -5.73476 2.72545
C 12.15582 -6.48899 3.51031
H 8.78753 1.42717 4.90894
H 9.95045 5.08668 -0.01722
H 10.68646 0.03128 -3.66906
H 9.42687 -3.37104 3.93801
H 9.27632 -1.04244 5.51664
H 7.38541 -2.29879 3.57082
H 7.22974 -0.53663 3.72862
H 7.02216 -1.51087 5.15250
H 11.56734 -1.59589 5.13509
H 12.08367 -2.97184 4.09328
H 10.25821 -3.97244 6.03597
H 11.11618 -2.70813 6.84238
H 9.19269 3.27697 5.83349
H 8.74848 4.86082 5.29191
H 10.44946 4.58144 5.73392
H 9.58094 6.75106 4.44965
H 10.76184 7.90898 3.60621
H 11.30350 6.43446 4.45817
H 10.70699 4.69638 -2.42034
H 9.51267 2.43806 -3.94688
H 8.73001 5.58399 -3.07823
H 7.92645 4.43625 -1.94995
H 8.13637 3.99975 -3.56891
H 11.43066 3.85292 -4.77830
H 11.64410 2.12396 -4.97862
H 12.84088 4.06586 -3.14045
H 13.68255 2.77673 -4.07562
H 12.78067 2.40644 -2.53815
H 11.54913 -3.52672 -3.64489
H 10.94032 -1.97510 -4.30670
H 9.75994 -3.16028 -3.61800
H 9.67070 -4.50452 1.33070
H 11.98024 -7.55240 3.32051
H 12.04656 -6.13884 4.55396
H 13.19381 -6.39001 3.21494

