%nproc=24
%mem=175gb
#p cam-b3lyp/Def2SVP td=(nstates=5)

TDDFT excited states in gaussian

0 1
Mg 0.00000 0.00000 0.00000
C -0.21700 -2.21800 2.80100
C -1.25500 2.44200 2.02600
C -0.24500 1.85000 -2.56400
C 0.14600 -2.82400 -2.03700
N -0.61700 -0.00900 2.12600
C -0.59400 -0.90800 3.10500
C -0.93600 -0.30900 4.50200
C -1.77300 0.96400 4.03200
C -1.15500 1.16800 2.66000
C -3.26300 0.68500 3.86300
C 0.34500 0.11000 5.29900
C 0.12400 0.39700 6.78700
H 1.16800 0.03300 7.73300
N -0.18500 1.96100 -0.15200
C -0.70300 2.80000 0.77700
C -0.62000 4.15600 0.19300
C -0.18700 4.01500 -1.22500
C -0.21400 2.58300 -1.38000
C -0.88700 5.40600 0.97400
C 0.18100 5.01300 -2.27700
O 0.30300 4.69000 -3.50800
C 0.31000 6.41400 -1.83700
N -0.26500 -0.41300 -2.02900
C -0.27900 0.56900 -2.93700
C -0.19600 0.02400 -4.33200
C 0.12400 -1.53300 -4.18000
C 0.08600 -1.63200 -2.63500
C -1.45100 0.20500 -5.19700
C 1.37300 -2.07000 -4.92300
C 2.62600 -1.49000 -4.30600
N 0.15000 -2.14400 0.30300
C 0.17300 -3.13600 -0.68800
C 0.17300 -4.43800 0.00400
C 0.13300 -4.11100 1.35800
C 0.08300 -2.69500 1.50200
C 0.14900 -5.71500 -0.62300
C 0.09600 -4.62900 2.71600
O 0.20800 -5.74700 3.22100
C -0.25500 -3.42800 3.70100
C 0.71700 -3.48200 4.84800
O 1.93100 -3.25500 4.66900
O 0.03800 -3.55600 6.00300
C 0.94300 -3.58300 7.18300
H -1.85900 3.22000 2.49700
H -0.21800 2.45300 -3.47400
H 0.27600 -3.74700 -2.60500
H -1.55400 -0.94900 5.13200
H -1.58500 1.83100 4.66500
H -3.48400 -0.37700 3.96900
H -3.51100 1.02700 2.85800
H -3.85200 1.30100 4.54300
H 0.66900 1.09600 4.96600
H 1.13000 -0.63900 5.18900
H -0.84400 0.02600 7.12500
H 0.06200 1.47700 6.92100
H -1.34400 5.18600 1.93800
H -1.65100 5.96300 0.43200
H 0.00700 6.02000 1.08400
H -0.63500 6.74400 -1.40500
H 0.66500 6.97000 -2.70400
H 1.04800 6.46600 -1.03600
H 0.60800 0.50100 -4.89100
H -0.69200 -2.15600 -4.54700
H -1.26700 0.74000 -6.12900
H -2.20400 0.71400 -4.59600
H -1.96700 -0.72000 -5.45300
H 1.35600 -1.75900 -5.96700
H 1.45200 -3.15700 -4.90200
H 2.71400 -0.52200 -4.79800
H 3.48700 -2.12100 -4.52900
H 2.49500 -1.30300 -3.24000
H 0.86700 -6.33300 -0.08400
H 0.40400 -5.64200 -1.68000
H -0.89100 -5.99900 -0.46300
H -1.28300 -3.58100 4.02800
H 0.69800 -4.47800 7.75500
H 0.83300 -2.61900 7.68000
H 2.00000 -3.75400 6.97600
Mg 13.14362 1.18933 1.00473
C 13.54456 -0.94988 3.85817
C 11.36173 3.28958 3.01680
C 12.39081 2.86710 -1.58096
C 13.93816 -1.55535 -0.99056
N 12.59265 1.07562 3.14383
C 12.85321 0.24609 4.14300
C 12.41448 0.76317 5.53932
C 11.26687 1.78302 5.06839
C 11.78382 2.10260 3.66722
C 9.90021 1.13178 4.93626
C 13.57222 1.50878 6.29146
C 13.31168 1.76820 7.77691
H 14.43862 1.70166 8.70322
N 12.47210 3.04874 0.83082
C 11.78792 3.75649 1.75400
C 11.50753 5.06091 1.13429
C 11.93816 5.00623 -0.28919
C 12.27189 3.60118 -0.40983
C 10.96177 6.22758 1.90530
C 12.02202 6.04380 -1.36743
O 12.19813 5.72508 -2.59635
C 11.79869 7.43723 -0.95518
N 12.95293 0.67837 -1.00148
C 12.66737 1.60997 -1.92803
C 12.85243 1.06533 -3.32428
C 13.55749 -0.35825 -3.14018
C 13.57801 -0.43290 -1.59765
C 11.57557 0.89788 -4.14767
C 14.88706 -0.58981 -3.90915
C 15.97015 0.30307 -3.34784
N 13.83089 -0.83120 1.34112
C 14.07619 -1.82227 0.36557
C 14.41578 -3.06694 1.08523
C 14.32127 -2.71684 2.44059
C 13.92939 -1.35586 2.55746
C 14.70772 -4.32305 0.48267
C 14.45358 -3.19202 3.79904
O 14.84434 -4.23586 4.32003
C 13.83361 -2.10379 4.77771
C 14.80981 -1.87815 5.89960
O 15.92383 -1.37263 5.67598
O 14.18893 -2.09287 7.07381
C 15.11343 -1.87074 8.21739
H 10.59977 3.90257 3.49903
H 12.24920 3.42981 -2.50658
H 14.29373 -2.42876 -1.54136
H 11.99507 0.00732 6.19244
H 11.25695 2.67834 5.68456
H 9.94980 0.06101 5.06722
H 9.55323 1.37550 3.94065
H 9.19141 1.59976 5.62542
H 13.62832 2.54265 5.92718
H 14.50166 0.98643 6.17344
H 12.46724 1.17997 8.15616
H 12.99087 2.80584 7.89691
H 10.58848 5.91987 2.88986
H 10.06946 6.57369 1.37252
H 11.67237 7.05364 1.97840
H 10.81434 7.52635 -0.50178
H 11.98758 8.03939 -1.84602
H 12.52748 7.69325 -0.17805
H 13.50250 1.70676 -3.90658
H 12.91312 -1.17985 -3.48601
H 11.59923 1.44903 -5.10670
H 10.73630 1.21902 -3.54514
H 11.31003 -0.13114 -4.38392
H 14.77008 -0.31293 -4.95977
H 15.22714 -1.61970 -3.88347
H 15.79648 1.25388 -3.86056
H 16.95505 -0.09674 -3.58059
H 15.82195 0.47499 -2.27540
H 15.56112 -4.72986 1.00871
H 14.90932 -4.21640 -0.58117
H 13.77014 -4.85266 0.67171
H 12.87968 -2.49181 5.13692
H 15.10894 -2.78778 8.81464
H 14.76058 -0.94605 8.71155
H 16.16924 -1.76792 7.99568

