%nproc=24
%mem=175gb
#p cam-b3lyp/Def2SVP td=(nstates=5)

TDDFT excited states in gaussian

0 1
Mg 10.50545 0.95035 0.80659
C 8.15746 -1.68570 1.45253
C 7.83159 2.98805 0.22963
C 12.53870 3.16658 -0.20419
C 12.92239 -1.51160 0.31377
N 8.32515 0.58282 0.86539
C 7.54879 -0.44210 1.18341
C 6.03958 -0.09602 1.29326
C 6.02066 1.20067 0.34611
C 7.47207 1.64610 0.51251
C 5.78681 0.87234 -1.11911
C 5.61292 0.25849 2.76101
C 4.10183 0.30475 2.99807
H 3.58532 -0.14746 4.28695
N 10.26740 2.90869 0.59016
C 9.10872 3.56997 0.38657
C 9.47126 4.99115 0.27259
C 10.95563 5.09712 0.26093
C 11.31939 3.69601 0.19275
C 8.45186 6.09307 0.26740
C 11.89250 6.26653 0.29150
O 13.14113 6.13590 0.03327
C 11.28896 7.58374 0.54086
N 12.39375 0.84288 -0.05659
C 13.08314 1.95873 -0.35251
C 14.51603 1.63740 -0.70458
C 14.70971 0.09064 -0.34738
C 13.26701 -0.25187 0.08470
C 14.91286 1.87663 -2.16118
C 15.87461 -0.26888 0.61513
C 15.58964 0.27566 1.99631
N 10.61167 -1.19455 1.04360
C 11.71233 -2.03106 0.75571
C 11.26766 -3.42388 0.96723
C 9.92180 -3.30136 1.34426
C 9.54803 -1.93030 1.34660
C 12.05809 -4.58974 0.76199
C 8.72936 -4.02080 1.73051
O 8.46745 -5.19608 1.98318
C 7.49884 -3.01533 1.69526
C 6.72030 -3.18916 2.97047
O 7.22647 -2.88872 4.06598
O 5.43996 -3.47327 2.66982
C 4.62518 -3.64377 3.90225
H 7.07494 3.64988 -0.19268
H 13.31037 3.89753 -0.45660
H 13.64408 -2.33038 0.27585
H 5.37035 -0.85253 0.90134
H 5.34275 1.95931 0.72856
H 5.78966 -0.19248 -1.29880
H 6.59363 1.34945 -1.65989
H 4.86635 1.34789 -1.46973
H 5.86721 1.30666 2.96454
H 6.06842 -0.41276 3.46285
H 3.54132 -0.15687 2.17607
H 3.78081 1.34920 2.98805
H 7.43749 5.70196 0.12078
H 8.64086 6.69931 -0.62513
H 8.51873 6.73290 1.14990
H 10.54452 7.79057 -0.22432
H 12.12675 8.27982 0.61466
H 10.75572 7.54881 1.49745
H 15.20218 2.22471 -0.10677
H 14.92061 -0.51120 -1.24357
H 15.76882 2.56876 -2.27234
H 14.04876 2.25200 -2.69313
H 15.15992 0.97925 -2.72587
H 16.80167 0.20315 0.28060
H 16.06326 -1.33491 0.68568
H 15.92109 1.31590 1.92468
H 16.15808 -0.26887 2.74757
H 14.51272 0.28617 2.20074
H 11.86961 -5.24546 1.60164
H 13.11464 -4.34401 0.67780
H 11.64210 -4.94314 -0.18528
H 6.90234 -3.25833 0.81507
H 4.15483 -4.62999 3.84039
H 3.95251 -2.76634 3.93943
H 5.15316 -3.72005 4.84557

