%nproc=24
%mem=175gb
#p cam-b3lyp/Def2SVP td=(nstates=5)

TDDFT excited states in gaussian

0 1
Mg 31.53974 2.83459 2.40189
C 31.73016 -0.51804 1.13592
C 30.55101 1.49501 5.37889
C 30.92893 5.78008 3.41107
C 31.42334 3.92856 -0.90498
N 31.21969 0.74429 3.05033
C 31.38289 -0.44996 2.50128
C 31.23992 -1.63763 3.49050
C 30.32608 -0.91912 4.59842
C 30.74512 0.52988 4.35863
C 28.83696 -1.03805 4.31960
C 32.61942 -2.08760 4.08759
C 32.59625 -3.43223 4.81778
H 33.77019 -4.29565 4.72374
N 31.31997 3.54156 4.24321
C 30.93340 2.85385 5.33815
C 30.90759 3.83028 6.43819
C 31.15092 5.18391 5.86968
C 31.12139 4.88372 4.45225
C 30.74789 3.43155 7.87656
C 31.36103 6.52848 6.49752
O 31.31715 7.60793 5.80783
C 31.52673 6.55128 7.95818
N 31.00926 4.58318 1.41024
C 30.85460 5.73842 2.08064
C 30.74636 6.90892 1.13269
C 31.10441 6.32571 -0.31273
C 31.27827 4.83499 0.05184
C 29.38307 7.59815 1.07968
C 32.24497 7.03337 -1.09440
C 33.56663 6.80725 -0.39619
N 31.75407 1.92453 0.45409
C 31.64348 2.56099 -0.80160
C 31.75189 1.50957 -1.83368
C 31.89611 0.32206 -1.10053
C 31.85854 0.61046 0.29048
C 31.66414 1.71202 -3.23989
C 32.06092 -1.11114 -1.18698
O 32.24480 -1.91067 -2.10387
C 31.83395 -1.73397 0.25765
C 32.95461 -2.70011 0.52824
O 34.12540 -2.29537 0.63792
O 32.43526 -3.90473 0.82747
C 33.50764 -4.89437 1.11457
H 30.01749 1.19571 6.28148
H 30.82446 6.82740 3.70379
H 31.49474 4.20010 -1.96037
H 30.72660 -2.50342 3.08965
H 30.60053 -1.23435 5.60175
H 28.64191 -1.48611 3.35662
H 28.44997 -0.02800 4.35229
H 28.34292 -1.57658 5.13339
H 32.88150 -1.42494 4.92242
H 33.37685 -2.10181 3.32816
H 31.68286 -4.00099 4.60527
H 32.54981 -3.24251 5.89290
H 30.42376 2.38780 7.97104
H 29.91130 4.01321 8.27863
H 31.63985 3.63718 8.47219
H 30.64958 6.11273 8.42802
H 31.75431 7.58884 8.21030
H 32.37769 5.91413 8.22373
H 31.46247 7.68049 1.38758
H 30.24695 6.38340 -0.99923
H 29.43147 8.67946 1.30881
H 28.71825 7.09304 1.76773
H 28.85324 7.50157 0.13356
H 32.08159 8.11379 -1.10723
H 32.32811 6.70797 -2.12599
H 33.57062 7.57814 0.38022
H 34.39420 6.94140 -1.08986
H 33.58468 5.83319 0.10633
H 32.44786 1.11701 -3.68961
H 31.76553 2.76430 -3.49716
H 30.65383 1.33896 -3.42798
H 30.86090 -2.22664 0.25281
H 33.34941 -5.74162 0.44017
H 33.44488 -5.09631 2.20041
H 34.52568 -4.61570 0.86882

