%nproc=24
%mem=175gb
#p cam-b3lyp/Def2SVP td=(nstates=5)

TDDFT excited states in gaussian

0 1
Mg 0.00000 0.00000 0.00000
C -0.21700 -2.21800 2.80100
C -1.25500 2.44200 2.02600
C -0.24500 1.85000 -2.56400
C 0.14600 -2.82400 -2.03700
N -0.61700 -0.00900 2.12600
C -0.59400 -0.90800 3.10500
C -0.93600 -0.30900 4.50200
C -1.77300 0.96400 4.03200
C -1.15500 1.16800 2.66000
C -3.26300 0.68500 3.86300
C 0.34500 0.11000 5.29900
C 0.12400 0.39700 6.78700
H 1.16800 0.03300 7.73300
N -0.18500 1.96100 -0.15200
C -0.70300 2.80000 0.77700
C -0.62000 4.15600 0.19300
C -0.18700 4.01500 -1.22500
C -0.21400 2.58300 -1.38000
C -0.88700 5.40600 0.97400
C 0.18100 5.01300 -2.27700
O 0.30300 4.69000 -3.50800
C 0.31000 6.41400 -1.83700
N -0.26500 -0.41300 -2.02900
C -0.27900 0.56900 -2.93700
C -0.19600 0.02400 -4.33200
C 0.12400 -1.53300 -4.18000
C 0.08600 -1.63200 -2.63500
C -1.45100 0.20500 -5.19700
C 1.37300 -2.07000 -4.92300
C 2.62600 -1.49000 -4.30600
N 0.15000 -2.14400 0.30300
C 0.17300 -3.13600 -0.68800
C 0.17300 -4.43800 0.00400
C 0.13300 -4.11100 1.35800
C 0.08300 -2.69500 1.50200
C 0.14900 -5.71500 -0.62300
C 0.09600 -4.62900 2.71600
O 0.20800 -5.74700 3.22100
C -0.25500 -3.42800 3.70100
C 0.71700 -3.48200 4.84800
O 1.93100 -3.25500 4.66900
O 0.03800 -3.55600 6.00300
C 0.94300 -3.58300 7.18300
H -1.85900 3.22000 2.49700
H -0.21800 2.45300 -3.47400
H 0.27600 -3.74700 -2.60500
H -1.55400 -0.94900 5.13200
H -1.58500 1.83100 4.66500
H -3.48400 -0.37700 3.96900
H -3.51100 1.02700 2.85800
H -3.85200 1.30100 4.54300
H 0.66900 1.09600 4.96600
H 1.13000 -0.63900 5.18900
H -0.84400 0.02600 7.12500
H 0.06200 1.47700 6.92100
H -1.34400 5.18600 1.93800
H -1.65100 5.96300 0.43200
H 0.00700 6.02000 1.08400
H -0.63500 6.74400 -1.40500
H 0.66500 6.97000 -2.70400
H 1.04800 6.46600 -1.03600
H 0.60800 0.50100 -4.89100
H -0.69200 -2.15600 -4.54700
H -1.26700 0.74000 -6.12900
H -2.20400 0.71400 -4.59600
H -1.96700 -0.72000 -5.45300
H 1.35600 -1.75900 -5.96700
H 1.45200 -3.15700 -4.90200
H 2.71400 -0.52200 -4.79800
H 3.48700 -2.12100 -4.52900
H 2.49500 -1.30300 -3.24000
H 0.86700 -6.33300 -0.08400
H 0.40400 -5.64200 -1.68000
H -0.89100 -5.99900 -0.46300
H -1.28300 -3.58100 4.02800
H 0.69800 -4.47800 7.75500
H 0.83300 -2.61900 7.68000
H 2.00000 -3.75400 6.97600
Mg 8.92584 0.80659 0.67260
C 8.98005 -1.95851 -1.61439
C 9.28395 2.85607 -2.03036
C 9.33340 3.22528 2.68538
C 9.71560 -1.45274 3.20585
N 9.09775 0.38460 -1.49180
C 9.04357 -0.70060 -2.24927
C 8.97730 -0.41795 -3.77415
C 9.65093 1.03981 -3.77801
C 9.29615 1.47677 -2.35819
C 11.16506 1.00278 -3.90205
C 7.50325 -0.37098 -4.30985
C 7.37144 -0.40737 -5.83401
H 6.23685 -1.11759 -6.41776
N 8.77106 2.76300 0.37748
C 8.92428 3.42465 -0.78871
C 8.73116 4.84822 -0.47199
C 8.61464 4.98855 1.00498
C 8.92953 3.63742 1.42380
C 8.59397 5.90559 -1.52867
C 8.28802 6.15001 1.89410
O 8.47600 6.10188 3.16105
C 7.82969 7.37752 1.22728
N 9.65473 0.91566 2.61661
C 9.67576 2.08357 3.28254
C 9.97958 1.87139 4.74646
C 9.91927 0.28940 4.97285
C 9.66797 -0.16500 3.51829
C 11.32857 2.40334 5.22982
C 8.96430 -0.22665 6.08389
C 7.52745 0.02694 5.68820
N 9.10657 -1.33975 0.84177
C 9.47253 -2.07713 1.98912
C 9.57062 -3.49412 1.58299
C 9.27506 -3.47969 0.21152
C 9.03117 -2.14522 -0.21180
C 9.94266 -4.57775 2.42765
C 9.12435 -4.28862 -0.97660
O 9.12639 -5.49638 -1.21123
C 9.05070 -3.32468 -2.23826
C 7.89384 -3.76543 -3.09263
O 6.72708 -3.67626 -2.67153
O 8.33596 -4.01379 -4.33891
C 7.22292 -4.44363 -5.22671
H 9.62193 3.57082 -2.78122
H 9.38135 4.00931 3.44464
H 9.86098 -2.23097 3.95812
H 9.55710 -1.09709 -4.38765
H 9.17723 1.69190 -4.50722
H 11.54918 -0.00503 -3.84811
H 11.54221 1.59597 -3.07929
H 11.48125 1.51702 -4.81414
H 7.08051 0.62171 -4.10835
H 6.91549 -1.15723 -3.87744
H 8.30623 -0.70988 -6.32147
H 7.19982 0.61071 -6.19188
H 8.88721 5.52801 -2.51601
H 9.33442 6.68073 -1.30341
H 7.60075 6.35940 -1.54400
H 8.59123 7.71456 0.52806
H 7.56067 8.06431 2.03216
H 6.93952 7.14162 0.63351
H 9.23035 2.34435 5.36942
H 10.89838 -0.11807 5.26465
H 11.23989 3.12330 6.06521
H 11.83764 2.85661 4.38962
H 12.03877 1.64147 5.54660
H 9.13205 0.32348 7.01306
H 9.09051 -1.28092 6.30655
H 7.36979 1.06811 5.98515
H 6.85838 -0.64233 6.22529
H 7.40323 -0.02803 4.60045
H 9.26358 -5.39090 2.20824
H 9.90057 -4.29596 3.47770
H 10.96832 -4.74609 2.08861
H 10.00215 -3.40226 -2.76579
H 7.51056 -5.40865 -5.65531
H 7.06323 -3.60665 -5.93220
H 6.27721 -4.69300 -4.75992

