%nproc=24
%mem=175gb
#p cam-b3lyp/Def2SVP td=(nstates=5)

TDDFT excited states in gaussian

0 1
Mg 7.88947 0.71461 0.60577
C 7.66863 -1.50811 3.41465
C 6.63278 3.15618 2.62915
C 7.64762 2.57345 -1.95424
C 8.02943 -2.10504 -1.43768
N 7.27022 0.70331 2.72913
C 7.28921 -0.18287 3.71334
C 6.95556 0.40200 5.11197
C 6.11090 1.68411 4.64121
C 6.72860 1.88992 3.25963
C 4.62924 1.39670 4.46396
C 8.24176 0.82169 5.90668
C 8.01412 1.11105 7.39201
H 9.06373 0.74892 8.34051
N 7.70667 2.68555 0.46242
C 7.19554 3.52478 1.38747
C 7.26531 4.86887 0.79357
C 7.70691 4.73422 -0.62120
C 7.68365 3.29275 -0.76855
C 7.00649 6.12067 1.58061
C 8.07527 5.73738 -1.67200
O 8.19952 5.40704 -2.90418
C 8.19468 7.13482 -1.23110
N 7.63166 0.30360 -1.41585
C 7.61191 1.29354 -2.32555
C 7.69310 0.74523 -3.73024
C 8.01655 -0.81227 -3.56545
C 7.97636 -0.91748 -2.02509
C 6.43735 0.91633 -4.58476
C 9.26686 -1.35413 -4.31096
C 10.52256 -0.76979 -3.70503
N 8.04306 -1.41920 0.90796
C 8.06018 -2.42237 -0.08574
C 8.05991 -3.72517 0.61078
C 8.01908 -3.38707 1.97185
C 7.97517 -1.97370 2.11311
C 8.04621 -5.00332 -0.01553
C 7.99241 -3.90465 3.32096
O 8.09699 -5.02218 3.82487
C 7.63663 -2.71404 4.31205
C 8.60774 -2.75921 5.45984
O 9.81811 -2.54348 5.27256
O 7.92162 -2.83348 6.61487
C 8.84122 -2.86955 7.78314
H 6.03463 3.93100 3.10952
H 7.67542 3.17030 -2.86883
H 8.17117 -3.02945 -2.00164
H 6.34386 -0.23705 5.73744
H 6.30751 2.54236 5.27848
H 4.40730 0.34521 4.57004
H 4.38072 1.73716 3.46728
H 4.04092 2.01413 5.14879
H 8.56312 1.81532 5.56879
H 9.01482 0.08631 5.79613
H 7.03998 0.74521 7.73865
H 7.95848 2.19357 7.53011
H 6.54204 5.89805 2.54918
H 6.24302 6.68789 1.03725
H 7.89805 6.74200 1.68895
H 7.25164 7.45837 -0.79699
H 8.55135 7.68683 -2.10285
H 8.94309 7.18697 -0.43249
H 8.49774 1.21471 -4.28273
H 7.19755 -1.44087 -3.94484
H 6.62319 1.46138 -5.52946
H 5.68850 1.42567 -3.99287
H 5.93057 -0.00954 -4.85148
H 9.25075 -1.03792 -5.35686
H 9.33917 -2.43658 -4.30286
H 10.60479 0.20338 -4.19825
H 11.38289 -1.39828 -3.92610
H 10.39302 -0.58571 -2.63219
H 8.75708 -5.61949 0.51879
H 8.29654 -4.93114 -1.07189
H 7.00161 -5.28574 0.14041
H 6.60685 -2.85836 4.64114
H 8.59263 -3.76712 8.35782
H 8.71640 -1.89515 8.29178
H 9.89497 -3.02925 7.58678

