%nproc=24
%mem=175gb
#p cam-b3lyp/Def2SVP td=(nstates=5)

TDDFT excited states in gaussian

0 1
Mg 0.00000 0.00000 0.00000
C -0.21700 -2.21800 2.80100
C -1.25500 2.44200 2.02600
C -0.24500 1.85000 -2.56400
C 0.14600 -2.82400 -2.03700
N -0.61700 -0.00900 2.12600
C -0.59400 -0.90800 3.10500
C -0.93600 -0.30900 4.50200
C -1.77300 0.96400 4.03200
C -1.15500 1.16800 2.66000
C -3.26300 0.68500 3.86300
C 0.34500 0.11000 5.29900
C 0.12400 0.39700 6.78700
H 1.16800 0.03300 7.73300
N -0.18500 1.96100 -0.15200
C -0.70300 2.80000 0.77700
C -0.62000 4.15600 0.19300
C -0.18700 4.01500 -1.22500
C -0.21400 2.58300 -1.38000
C -0.88700 5.40600 0.97400
C 0.18100 5.01300 -2.27700
O 0.30300 4.69000 -3.50800
C 0.31000 6.41400 -1.83700
N -0.26500 -0.41300 -2.02900
C -0.27900 0.56900 -2.93700
C -0.19600 0.02400 -4.33200
C 0.12400 -1.53300 -4.18000
C 0.08600 -1.63200 -2.63500
C -1.45100 0.20500 -5.19700
C 1.37300 -2.07000 -4.92300
C 2.62600 -1.49000 -4.30600
N 0.15000 -2.14400 0.30300
C 0.17300 -3.13600 -0.68800
C 0.17300 -4.43800 0.00400
C 0.13300 -4.11100 1.35800
C 0.08300 -2.69500 1.50200
C 0.14900 -5.71500 -0.62300
C 0.09600 -4.62900 2.71600
O 0.20800 -5.74700 3.22100
C -0.25500 -3.42800 3.70100
C 0.71700 -3.48200 4.84800
O 1.93100 -3.25500 4.66900
O 0.03800 -3.55600 6.00300
C 0.94300 -3.58300 7.18300
H -1.85900 3.22000 2.49700
H -0.21800 2.45300 -3.47400
H 0.27600 -3.74700 -2.60500
H -1.55400 -0.94900 5.13200
H -1.58500 1.83100 4.66500
H -3.48400 -0.37700 3.96900
H -3.51100 1.02700 2.85800
H -3.85200 1.30100 4.54300
H 0.66900 1.09600 4.96600
H 1.13000 -0.63900 5.18900
H -0.84400 0.02600 7.12500
H 0.06200 1.47700 6.92100
H -1.34400 5.18600 1.93800
H -1.65100 5.96300 0.43200
H 0.00700 6.02000 1.08400
H -0.63500 6.74400 -1.40500
H 0.66500 6.97000 -2.70400
H 1.04800 6.46600 -1.03600
H 0.60800 0.50100 -4.89100
H -0.69200 -2.15600 -4.54700
H -1.26700 0.74000 -6.12900
H -2.20400 0.71400 -4.59600
H -1.96700 -0.72000 -5.45300
H 1.35600 -1.75900 -5.96700
H 1.45200 -3.15700 -4.90200
H 2.71400 -0.52200 -4.79800
H 3.48700 -2.12100 -4.52900
H 2.49500 -1.30300 -3.24000
H 0.86700 -6.33300 -0.08400
H 0.40400 -5.64200 -1.68000
H -0.89100 -5.99900 -0.46300
H -1.28300 -3.58100 4.02800
H 0.69800 -4.47800 7.75500
H 0.83300 -2.61900 7.68000
H 2.00000 -3.75400 6.97600
Mg 15.76318 1.42378 1.20680
C 13.58492 -1.12906 2.47852
C 13.08171 3.53116 1.26413
C 17.53534 3.56040 -0.33000
C 17.91883 -1.11785 0.18751
N 13.65775 1.12319 1.81432
C 12.95970 0.12762 2.33960
C 11.53456 0.52084 2.81280
C 11.31276 1.80140 1.86949
C 12.77054 2.20561 1.65933
C 10.71317 1.45567 0.51660
C 11.49596 0.91268 4.33168
C 10.09318 1.00846 4.93566
H 9.90285 0.59376 6.32284
N 15.52778 3.38449 1.00980
C 14.37182 4.07688 1.08486
C 14.72997 5.48436 0.85059
C 16.16682 5.54533 0.46789
C 16.46698 4.13294 0.34479
C 13.76930 6.61627 1.07268
C 17.11072 6.68632 0.23684
O 18.25201 6.51379 -0.32041
C 16.62145 8.02513 0.59696
N 17.37366 1.24494 -0.09577
C 17.99530 2.33436 -0.58019
C 19.28683 1.96411 -1.26957
C 19.52463 0.41844 -0.93501
C 18.22692 0.12689 -0.14993
C 19.31418 2.16674 -2.78435
C 20.88320 0.04021 -0.28392
C 20.96495 0.61624 1.11139
N 15.87141 -0.71905 1.46093
C 16.84439 -1.59309 0.92853
C 16.43173 -2.96812 1.27699
C 15.22571 -2.79875 1.97364
C 14.89871 -1.41721 2.03618
C 17.11671 -4.16056 0.90956
C 14.14945 -3.47532 2.66112
O 13.92943 -4.63777 2.99884
C 12.97448 -2.43396 2.90887
C 12.53402 -2.56277 4.34132
O 13.30446 -2.25934 5.26919
O 11.21245 -2.81318 4.37514
C 10.72633 -2.93828 5.77508
H 12.26052 4.20831 1.02749
H 18.23785 4.26341 -0.78358
H 18.58762 -1.95853 -0.00909
H 10.77010 -0.22164 2.61760
H 10.77067 2.58646 2.39026
H 10.64454 0.38838 0.36722
H 11.37153 1.89908 -0.21892
H 9.74658 1.95279 0.39452
H 11.81906 1.95598 4.44063
H 12.09498 0.23991 4.91406
H 9.33422 0.55019 4.28997
H 9.80601 2.06179 4.98088
H 12.74092 6.25351 1.19210
H 13.74513 7.20145 0.14702
H 14.06986 7.26855 1.89540
H 15.71530 8.24141 0.03609
H 17.46836 8.69678 0.44365
H 16.34259 8.02238 1.65660
H 20.11472 2.54044 -0.87518
H 19.49053 -0.20447 -1.84091
H 20.13252 2.83078 -3.12118
H 18.35448 2.55898 -3.09364
H 19.39028 1.25295 -3.37121
H 21.70921 0.47839 -0.84948
H 21.05674 -1.02969 -0.23712
H 21.29402 1.64467 0.93491
H 21.68880 0.06753 1.71055
H 19.97350 0.66265 1.57672
H 17.12698 -4.79609 1.78505
H 18.12480 -3.94824 0.55962
H 16.46917 -4.51714 0.10407
H 12.17165 -2.67363 2.21058
H 10.23088 -3.91078 5.85554
H 10.10629 -2.04047 5.95738
H 11.47057 -3.01457 6.55914

