%nproc=24
%mem=175gb
#p cam-b3lyp/Def2SVP td=(nstates=5)

TDDFT excited states in gaussian

0 1
Mg 13.14655 1.18767 1.00308
C 13.57680 -0.97983 3.83078
C 12.49493 3.69969 3.21662
C 12.32122 3.00964 -1.45998
C 12.70253 -1.66889 -0.94336
N 13.07563 1.23075 3.21337
C 13.31701 0.36108 4.18278
C 13.35699 0.97918 5.60613
C 12.45403 2.27807 5.32968
C 12.71308 2.44190 3.83344
C 10.96821 2.03251 5.53310
C 14.81068 1.37321 6.04604
C 14.96750 1.69424 7.53403
H 16.21089 1.31664 8.20026
N 12.98315 3.16053 0.86281
C 12.73971 4.03023 1.86563
C 12.69294 5.36142 1.24122
C 12.76471 5.18975 -0.23529
C 12.66943 3.74736 -0.33790
C 12.66971 6.63352 2.03788
C 12.88469 6.16354 -1.36823
O 12.68980 5.80893 -2.58441
C 13.14507 7.56396 -1.00421
N 12.38311 0.75067 -0.88067
C 12.16215 1.72532 -1.78021
C 11.87715 1.15127 -3.14755
C 12.19240 -0.41228 -3.03131
C 12.53454 -0.49031 -1.52724
C 10.45282 1.34575 -3.66701
C 13.20364 -1.00405 -4.05105
C 14.58490 -0.44772 -3.79027
N 13.31715 -0.94442 1.30830
C 13.06112 -1.96422 0.36568
C 13.20177 -3.25452 1.07120
C 13.50972 -2.89250 2.39128
C 13.53774 -1.47627 2.50535
C 13.00053 -4.54203 0.49854
C 13.80700 -3.38628 3.71661
O 14.00581 -4.49782 4.20516
C 13.73919 -2.16899 4.73641
C 14.96415 -2.22410 5.60759
O 16.09472 -2.04813 5.12031
O 14.58572 -2.25822 6.89833
C 15.76614 -2.30234 7.80193
H 12.05486 4.50016 3.81199
H 12.13525 3.58991 -2.36672
H 12.67616 -2.60650 -1.50270
H 12.90458 0.36947 6.37901
H 12.82458 3.14060 5.87749
H 10.75346 0.99012 5.71599
H 10.48786 2.36350 4.62164
H 10.58465 2.67883 6.32777
H 15.06250 2.35088 5.61535
H 15.51320 0.61311 5.76437
H 14.10158 1.36381 8.12049
H 14.97511 2.78012 7.65583
H 12.45574 6.44132 3.09650
H 11.80939 7.21427 1.68796
H 13.57540 7.22942 1.90644
H 12.34828 7.92304 -0.35719
H 13.28705 8.09023 -1.95013
H 14.06988 7.60695 -0.41813
H 12.53029 1.58692 -3.89369
H 11.28925 -1.02220 -3.18020
H 10.41106 1.86898 -4.64095
H 9.88798 1.88731 -2.91988
H 9.87258 0.43122 -3.77731
H 12.93544 -0.70513 -5.06735
H 13.24860 -2.08790 -4.03542
H 14.56600 0.51410 -4.31146
H 15.34706 -1.10549 -4.20320
H 14.73132 -0.24180 -2.72359
H 13.80645 -5.17027 0.85393
H 12.98157 -4.49520 -0.58830
H 12.02097 -4.79017 0.91586
H 12.82056 -2.27664 5.31443
H 15.64616 -3.18222 8.44154
H 15.79636 -1.31620 8.30230
H 16.73343 -2.49701 7.35371

