%nproc=24
%mem=175gb
#p cam-b3lyp/Def2SVP td=(nstates=5)

TDDFT excited states in gaussian

0 1
Mg 0.00000 0.00000 0.00000
C -0.21700 -2.21800 2.80100
C -1.25500 2.44200 2.02600
C -0.24500 1.85000 -2.56400
C 0.14600 -2.82400 -2.03700
N -0.61700 -0.00900 2.12600
C -0.59400 -0.90800 3.10500
C -0.93600 -0.30900 4.50200
C -1.77300 0.96400 4.03200
C -1.15500 1.16800 2.66000
C -3.26300 0.68500 3.86300
C 0.34500 0.11000 5.29900
C 0.12400 0.39700 6.78700
H 1.16800 0.03300 7.73300
N -0.18500 1.96100 -0.15200
C -0.70300 2.80000 0.77700
C -0.62000 4.15600 0.19300
C -0.18700 4.01500 -1.22500
C -0.21400 2.58300 -1.38000
C -0.88700 5.40600 0.97400
C 0.18100 5.01300 -2.27700
O 0.30300 4.69000 -3.50800
C 0.31000 6.41400 -1.83700
N -0.26500 -0.41300 -2.02900
C -0.27900 0.56900 -2.93700
C -0.19600 0.02400 -4.33200
C 0.12400 -1.53300 -4.18000
C 0.08600 -1.63200 -2.63500
C -1.45100 0.20500 -5.19700
C 1.37300 -2.07000 -4.92300
C 2.62600 -1.49000 -4.30600
N 0.15000 -2.14400 0.30300
C 0.17300 -3.13600 -0.68800
C 0.17300 -4.43800 0.00400
C 0.13300 -4.11100 1.35800
C 0.08300 -2.69500 1.50200
C 0.14900 -5.71500 -0.62300
C 0.09600 -4.62900 2.71600
O 0.20800 -5.74700 3.22100
C -0.25500 -3.42800 3.70100
C 0.71700 -3.48200 4.84800
O 1.93100 -3.25500 4.66900
O 0.03800 -3.55600 6.00300
C 0.94300 -3.58300 7.18300
H -1.85900 3.22000 2.49700
H -0.21800 2.45300 -3.47400
H 0.27600 -3.74700 -2.60500
H -1.55400 -0.94900 5.13200
H -1.58500 1.83100 4.66500
H -3.48400 -0.37700 3.96900
H -3.51100 1.02700 2.85800
H -3.85200 1.30100 4.54300
H 0.66900 1.09600 4.96600
H 1.13000 -0.63900 5.18900
H -0.84400 0.02600 7.12500
H 0.06200 1.47700 6.92100
H -1.34400 5.18600 1.93800
H -1.65100 5.96300 0.43200
H 0.00700 6.02000 1.08400
H -0.63500 6.74400 -1.40500
H 0.66500 6.97000 -2.70400
H 1.04800 6.46600 -1.03600
H 0.60800 0.50100 -4.89100
H -0.69200 -2.15600 -4.54700
H -1.26700 0.74000 -6.12900
H -2.20400 0.71400 -4.59600
H -1.96700 -0.72000 -5.45300
H 1.35600 -1.75900 -5.96700
H 1.45200 -3.15700 -4.90200
H 2.71400 -0.52200 -4.79800
H 3.48700 -2.12100 -4.52900
H 2.49500 -1.30300 -3.24000
H 0.86700 -6.33300 -0.08400
H 0.40400 -5.64200 -1.68000
H -0.89100 -5.99900 -0.46300
H -1.28300 -3.58100 4.02800
H 0.69800 -4.47800 7.75500
H 0.83300 -2.61900 7.68000
H 2.00000 -3.75400 6.97600
Mg 7.89064 0.71023 0.60630
C 6.33205 -1.12918 3.26458
C 8.00581 3.38207 2.72351
C 8.84857 2.48414 -1.84381
C 6.63384 -1.67940 -1.59729
N 7.22417 0.96933 2.69937
C 6.70180 0.18254 3.62805
C 6.64218 0.81247 5.04551
C 6.64725 2.36117 4.62082
C 7.36798 2.24439 3.27933
C 5.25698 2.92069 4.36896
C 7.89819 0.45080 5.91364
C 7.76413 0.77209 7.40379
H 8.39259 -0.12593 8.36872
N 8.80031 2.47378 0.57566
C 8.75820 3.42778 1.52929
C 9.57477 4.54094 1.02111
C 9.96721 4.23290 -0.38097
C 9.18618 3.03509 -0.61620
C 9.97490 5.71118 1.87190
C 10.88279 4.91208 -1.35391
O 10.89130 4.60418 -2.59807
C 11.70207 6.01223 -0.82481
N 7.58576 0.56356 -1.44501
C 8.15812 1.43594 -2.29312
C 8.02503 0.97271 -3.72424
C 7.45359 -0.51868 -3.64169
C 7.26278 -0.63232 -2.11327
C 7.11460 1.81769 -4.61503
C 8.26570 -1.62480 -4.36946
C 9.59644 -1.82560 -3.68083
N 6.85887 -1.17969 0.78435
C 6.40163 -2.00424 -0.26690
C 5.65899 -3.12307 0.34884
C 5.71648 -2.85736 1.72528
C 6.42629 -1.64694 1.95012
C 5.00469 -4.17390 -0.35384
C 5.32897 -3.32001 3.03848
O 4.78635 -4.33323 3.47742
C 5.60137 -2.15539 4.08531
C 6.32022 -2.75013 5.26517
O 7.46744 -3.21322 5.13854
O 5.62702 -2.47887 6.38600
C 6.30601 -3.03887 7.58483
H 7.88501 4.34201 3.22632
H 9.25103 2.99984 -2.71877
H 6.29562 -2.51756 -2.21030
H 5.74418 0.58378 5.60683
H 7.23030 2.95949 5.31610
H 4.50063 2.15065 4.40240
H 5.29490 3.37133 3.38583
H 5.04690 3.73652 5.06654
H 8.72249 1.12565 5.64935
H 8.16326 -0.58109 5.78888
H 6.72519 0.97689 7.68946
H 8.28729 1.71009 7.60498
H 9.40127 5.74392 2.80639
H 9.67071 6.61598 1.33463
H 11.05121 5.75232 2.05231
H 11.05238 6.77864 -0.40891
H 12.35478 6.31209 -1.64696
H 12.30821 5.62977 0.00401
H 8.99008 0.95258 -4.21553
H 6.45224 -0.59674 -4.09006
H 7.62445 2.20571 -5.51701
H 6.71755 2.63152 -4.02294
H 6.20987 1.31789 -4.95689
H 8.48964 -1.31803 -5.39410
H 7.74707 -2.57612 -4.42417
H 10.21851 -1.03476 -4.11059
H 9.99942 -2.81098 -3.90594
H 9.51566 -1.63329 -2.60466
H 5.23898 -5.09141 0.16940
H 5.32322 -4.21567 -1.39335
H 3.96348 -3.85516 -0.25607
H 4.63520 -1.73347 4.36473
H 5.57892 -3.67904 8.09394
H 6.68884 -2.16601 8.14635
H 7.12107 -3.73389 7.42030

