%nproc=24
%mem=175gb
#p cam-b3lyp/Def2SVP td=(nstates=5)

TDDFT excited states in gaussian

0 1
Mg 0.00000 0.00000 0.00000
C -0.21700 -2.21800 2.80100
C -1.25500 2.44200 2.02600
C -0.24500 1.85000 -2.56400
C 0.14600 -2.82400 -2.03700
N -0.61700 -0.00900 2.12600
C -0.59400 -0.90800 3.10500
C -0.93600 -0.30900 4.50200
C -1.77300 0.96400 4.03200
C -1.15500 1.16800 2.66000
C -3.26300 0.68500 3.86300
C 0.34500 0.11000 5.29900
C 0.12400 0.39700 6.78700
H 1.16800 0.03300 7.73300
N -0.18500 1.96100 -0.15200
C -0.70300 2.80000 0.77700
C -0.62000 4.15600 0.19300
C -0.18700 4.01500 -1.22500
C -0.21400 2.58300 -1.38000
C -0.88700 5.40600 0.97400
C 0.18100 5.01300 -2.27700
O 0.30300 4.69000 -3.50800
C 0.31000 6.41400 -1.83700
N -0.26500 -0.41300 -2.02900
C -0.27900 0.56900 -2.93700
C -0.19600 0.02400 -4.33200
C 0.12400 -1.53300 -4.18000
C 0.08600 -1.63200 -2.63500
C -1.45100 0.20500 -5.19700
C 1.37300 -2.07000 -4.92300
C 2.62600 -1.49000 -4.30600
N 0.15000 -2.14400 0.30300
C 0.17300 -3.13600 -0.68800
C 0.17300 -4.43800 0.00400
C 0.13300 -4.11100 1.35800
C 0.08300 -2.69500 1.50200
C 0.14900 -5.71500 -0.62300
C 0.09600 -4.62900 2.71600
O 0.20800 -5.74700 3.22100
C -0.25500 -3.42800 3.70100
C 0.71700 -3.48200 4.84800
O 1.93100 -3.25500 4.66900
O 0.03800 -3.55600 6.00300
C 0.94300 -3.58300 7.18300
H -1.85900 3.22000 2.49700
H -0.21800 2.45300 -3.47400
H 0.27600 -3.74700 -2.60500
H -1.55400 -0.94900 5.13200
H -1.58500 1.83100 4.66500
H -3.48400 -0.37700 3.96900
H -3.51100 1.02700 2.85800
H -3.85200 1.30100 4.54300
H 0.66900 1.09600 4.96600
H 1.13000 -0.63900 5.18900
H -0.84400 0.02600 7.12500
H 0.06200 1.47700 6.92100
H -1.34400 5.18600 1.93800
H -1.65100 5.96300 0.43200
H 0.00700 6.02000 1.08400
H -0.63500 6.74400 -1.40500
H 0.66500 6.97000 -2.70400
H 1.04800 6.46600 -1.03600
H 0.60800 0.50100 -4.89100
H -0.69200 -2.15600 -4.54700
H -1.26700 0.74000 -6.12900
H -2.20400 0.71400 -4.59600
H -1.96700 -0.72000 -5.45300
H 1.35600 -1.75900 -5.96700
H 1.45200 -3.15700 -4.90200
H 2.71400 -0.52200 -4.79800
H 3.48700 -2.12100 -4.52900
H 2.49500 -1.30300 -3.24000
H 0.86700 -6.33300 -0.08400
H 0.40400 -5.64200 -1.68000
H -0.89100 -5.99900 -0.46300
H -1.28300 -3.58100 4.02800
H 0.69800 -4.47800 7.75500
H 0.83300 -2.61900 7.68000
H 2.00000 -3.75400 6.97600
Mg 13.14607 1.18387 1.00547
C 11.72213 -0.73520 3.68290
C 13.10549 3.86932 3.10816
C 13.97589 3.00096 -1.45969
C 12.02902 -1.29220 -1.17788
N 12.47707 1.41210 3.10132
C 12.01078 0.59916 4.03730
C 11.92007 1.23191 5.45186
C 11.82516 2.77549 5.01919
C 12.54382 2.69686 3.67382
C 10.40097 3.24508 4.77320
C 13.20149 0.95474 6.31392
C 13.05635 1.27519 7.80322
H 13.74579 0.42381 8.76877
N 13.94277 3.00095 0.96006
C 13.84639 3.95566 1.90902
C 14.58826 5.11515 1.39001
C 14.99096 4.82466 -0.01291
C 14.28546 3.57882 -0.23708
C 14.91903 6.31291 2.23225
C 15.85620 5.55469 -0.99506
O 15.87665 5.24107 -2.23765
C 16.60776 6.70709 -0.47678
N 12.83882 1.00700 -1.04311
C 13.35010 1.90895 -1.89926
C 13.23791 1.43037 -3.32712
C 12.76194 -0.09352 -3.23332
C 12.58775 -0.21050 -1.70317
C 12.27083 2.21150 -4.21649
C 13.63770 -1.15038 -3.96048
C 14.98250 -1.26330 -3.27921
N 12.23632 -0.76618 1.19971
C 11.82563 -1.62364 0.15560
C 11.15853 -2.78354 0.78173
C 11.20738 -2.50714 2.15640
C 11.84095 -1.25326 2.37056
C 10.56747 -3.87730 0.08858
C 10.85756 -2.98599 3.47437
O 10.38239 -4.02889 3.92190
C 11.06236 -1.80078 4.51347
C 11.82421 -2.34261 5.69183
O 12.99753 -2.73334 5.56037
O 11.12200 -2.10930 6.81559
C 11.84200 -2.61886 8.01299
H 12.92752 4.82252 3.60678
H 14.33990 3.53611 -2.33980
H 11.74057 -2.15333 -1.78444
H 11.04159 0.95031 6.01997
H 12.37354 3.41313 5.70771
H 9.69478 2.42920 4.81535
H 10.40461 3.69177 3.78756
H 10.14413 4.04993 5.46789
H 13.98011 1.67863 6.04099
H 13.53021 -0.05911 6.19280
H 12.00829 1.41582 8.09435
H 13.52064 2.24533 7.99629
H 14.35004 6.31467 3.17015
H 14.55532 7.19381 1.69225
H 15.99167 6.42265 2.40567
H 15.91362 7.43341 -0.06074
H 17.23541 7.04285 -1.30454
H 17.24168 6.36808 0.35017
H 14.19937 1.46826 -3.82435
H 11.76484 -0.23688 -3.67498
H 12.74988 2.62582 -5.12364
H 11.82689 3.00201 -3.62611
H 11.39733 1.65391 -4.55009
H 13.83579 -0.83580 -4.98808
H 13.17963 -2.13272 -4.00705
H 15.55101 -0.43729 -3.71692
H 15.44534 -2.22261 -3.50179
H 14.89618 -1.07051 -2.20355
H 10.86214 -4.77536 0.61505
H 10.88181 -3.90470 -0.95267
H 9.50887 -3.62414 0.19126
H 10.07324 -1.43892 4.79679
H 11.15967 -3.30068 8.52994
H 12.17249 -1.72057 8.56760
H 12.69819 -3.26215 7.84691

