%nproc=24
%mem=175gb
#p cam-b3lyp/Def2SVP td=(nstates=5)

TDDFT excited states in gaussian

0 1
Mg 0.00000 0.00000 0.00000
C -0.21700 -2.21800 2.80100
C -1.25500 2.44200 2.02600
C -0.24500 1.85000 -2.56400
C 0.14600 -2.82400 -2.03700
N -0.61700 -0.00900 2.12600
C -0.59400 -0.90800 3.10500
C -0.93600 -0.30900 4.50200
C -1.77300 0.96400 4.03200
C -1.15500 1.16800 2.66000
C -3.26300 0.68500 3.86300
C 0.34500 0.11000 5.29900
C 0.12400 0.39700 6.78700
H 1.16800 0.03300 7.73300
N -0.18500 1.96100 -0.15200
C -0.70300 2.80000 0.77700
C -0.62000 4.15600 0.19300
C -0.18700 4.01500 -1.22500
C -0.21400 2.58300 -1.38000
C -0.88700 5.40600 0.97400
C 0.18100 5.01300 -2.27700
O 0.30300 4.69000 -3.50800
C 0.31000 6.41400 -1.83700
N -0.26500 -0.41300 -2.02900
C -0.27900 0.56900 -2.93700
C -0.19600 0.02400 -4.33200
C 0.12400 -1.53300 -4.18000
C 0.08600 -1.63200 -2.63500
C -1.45100 0.20500 -5.19700
C 1.37300 -2.07000 -4.92300
C 2.62600 -1.49000 -4.30600
N 0.15000 -2.14400 0.30300
C 0.17300 -3.13600 -0.68800
C 0.17300 -4.43800 0.00400
C 0.13300 -4.11100 1.35800
C 0.08300 -2.69500 1.50200
C 0.14900 -5.71500 -0.62300
C 0.09600 -4.62900 2.71600
O 0.20800 -5.74700 3.22100
C -0.25500 -3.42800 3.70100
C 0.71700 -3.48200 4.84800
O 1.93100 -3.25500 4.66900
O 0.03800 -3.55600 6.00300
C 0.94300 -3.58300 7.18300
H -1.85900 3.22000 2.49700
H -0.21800 2.45300 -3.47400
H 0.27600 -3.74700 -2.60500
H -1.55400 -0.94900 5.13200
H -1.58500 1.83100 4.66500
H -3.48400 -0.37700 3.96900
H -3.51100 1.02700 2.85800
H -3.85200 1.30100 4.54300
H 0.66900 1.09600 4.96600
H 1.13000 -0.63900 5.18900
H -0.84400 0.02600 7.12500
H 0.06200 1.47700 6.92100
H -1.34400 5.18600 1.93800
H -1.65100 5.96300 0.43200
H 0.00700 6.02000 1.08400
H -0.63500 6.74400 -1.40500
H 0.66500 6.97000 -2.70400
H 1.04800 6.46600 -1.03600
H 0.60800 0.50100 -4.89100
H -0.69200 -2.15600 -4.54700
H -1.26700 0.74000 -6.12900
H -2.20400 0.71400 -4.59600
H -1.96700 -0.72000 -5.45300
H 1.35600 -1.75900 -5.96700
H 1.45200 -3.15700 -4.90200
H 2.71400 -0.52200 -4.79800
H 3.48700 -2.12100 -4.52900
H 2.49500 -1.30300 -3.24000
H 0.86700 -6.33300 -0.08400
H 0.40400 -5.64200 -1.68000
H -0.89100 -5.99900 -0.46300
H -1.28300 -3.58100 4.02800
H 0.69800 -4.47800 7.75500
H 0.83300 -2.61900 7.68000
H 2.00000 -3.75400 6.97600
Mg 15.77369 1.41891 1.20522
C 13.96249 -0.23628 3.82419
C 16.19596 4.03410 3.35396
C 16.97812 3.08252 -1.21328
C 14.25544 -0.77206 -1.03984
N 15.11810 1.73901 3.29328
C 14.48921 1.01495 4.20684
C 14.49086 1.63336 5.63061
C 14.69570 3.17327 5.22370
C 15.41330 2.98012 3.88937
C 13.39000 3.90546 4.96222
C 15.68028 1.10823 6.50899
C 15.56841 1.42909 8.00107
H 16.06673 0.44977 8.96287
N 16.89779 3.05444 1.20520
C 16.96345 3.99671 2.16910
C 17.91973 5.00344 1.68310
C 18.28843 4.66239 0.28222
C 17.36637 3.57456 0.02434
C 18.45256 6.10569 2.55175
C 19.29446 5.23075 -0.67228
O 19.28028 4.93650 -1.91970
C 20.23844 6.21399 -0.12125
N 15.47926 1.33195 -0.85101
C 16.16744 2.13385 -1.68245
C 15.99571 1.70515 -3.12020
C 15.24063 0.29661 -3.06126
C 15.01739 0.19276 -1.53654
C 15.21006 2.66655 -4.01174
C 15.91682 -0.89552 -3.79218
C 17.20286 -1.26869 -3.09058
N 14.51070 -0.32809 1.34979
C 13.96719 -1.07826 0.28400
C 13.08215 -2.10096 0.87833
C 13.15480 -1.85817 2.25828
C 14.00794 -0.74879 2.50509
C 12.31026 -3.05429 0.15620
C 12.69542 -2.28141 3.56156
O 12.02433 -3.22273 3.98262
C 13.09830 -1.17062 4.62468
C 13.72158 -1.86256 5.80589
O 14.80316 -2.46482 5.68723
O 13.05353 -1.51745 6.92167
C 13.64138 -2.17011 8.12179
H 16.19011 4.99659 3.86626
H 17.45335 3.55219 -2.07760
H 13.82264 -1.55500 -1.66623
H 13.56411 1.51377 6.17889
H 15.34023 3.68672 5.93244
H 12.54263 3.23624 4.97814
H 13.49682 4.35744 3.98480
H 13.27499 4.73430 5.66659
H 16.58608 1.67677 6.26195
H 15.81534 0.05250 6.37554
H 14.55979 1.75995 8.27704
H 16.20251 2.29192 8.21896
H 17.87558 6.20101 3.47987
H 18.27125 7.04680 2.02135
H 19.52311 6.00952 2.74501
H 19.68475 7.05180 0.29584
H 20.93415 6.43758 -0.93234
H 20.78107 5.75026 0.71009
H 16.95686 1.56880 -3.60052
H 14.24325 0.34938 -3.52202
H 15.77614 2.99632 -4.90329
H 14.91068 3.51793 -3.41503
H 14.25424 2.28775 -4.36969
H 16.19066 -0.60922 -4.81061
H 15.28365 -1.77358 -3.86372
H 17.92473 -0.55806 -3.50409
H 17.48187 -2.29461 -3.32226
H 17.13300 -1.07838 -2.01329
H 12.42081 -3.99908 0.67162
H 12.63439 -3.12549 -0.87997
H 11.31611 -2.60826 0.24559
H 12.18920 -0.63346 4.89773
H 12.83321 -2.71887 8.61515
H 14.12346 -1.35783 8.69761
H 14.36484 -2.96035 7.95876

