%nproc=24
%mem=175gb
#p cam-b3lyp/Def2SVP td=(nstates=5)

TDDFT excited states in gaussian

0 1
Mg 7.88875 0.71285 0.59041
C 10.66153 -1.56089 0.73491
C 10.14668 3.25099 0.89733
C 5.44708 2.71231 0.91874
C 5.82691 -1.96608 1.43768
N 10.09222 0.71785 0.78259
C 11.04363 -0.20346 0.76337
C 12.48691 0.36374 0.69426
C 12.20582 1.81386 1.32435
C 10.73200 1.96081 0.95163
C 12.32068 1.84431 2.83935
C 13.01733 0.47042 -0.77859
C 14.52149 0.72260 -0.90374
H 15.24067 0.10524 -2.01464
N 7.80586 2.68437 0.37871
C 8.82262 3.56102 0.51645
C 8.24141 4.89161 0.28004
C 6.76599 4.74336 0.15406
C 6.61028 3.34658 0.50739
C 9.07771 6.12729 0.11536
C 5.67431 5.70348 -0.21009
O 4.43823 5.41918 -0.02535
C 6.09838 7.02237 -0.70222
N 5.95310 0.46861 1.30870
C 5.07603 1.48764 1.29267
C 3.67693 1.00799 1.59734
C 3.75767 -0.58915 1.58318
C 5.27453 -0.76379 1.35073
C 3.08837 1.47577 2.92820
C 2.77463 -1.33519 0.63993
C 3.12779 -1.05153 -0.80237
N 8.13132 -1.42018 0.83413
C 7.14275 -2.35277 1.21765
C 7.81133 -3.66250 1.35921
C 9.15742 -3.39432 1.06831
C 9.32007 -2.01099 0.78647
C 7.18598 -4.87670 1.76017
C 10.47959 -3.96492 0.94597
O 10.94073 -5.10491 0.98469
C 11.53435 -2.77988 0.84831
C 12.46786 -3.08171 -0.29186
O 12.04827 -3.10797 -1.46227
O 13.73450 -3.07435 0.16194
C 14.69833 -3.35785 -0.93464
H 10.74392 4.10551 1.21667
H 4.55153 3.33761 0.94066
H 5.23596 -2.86940 1.60337
H 13.21354 -0.16870 1.29617
H 12.80128 2.57969 0.83415
H 12.45684 0.85614 3.25301
H 11.39626 2.27959 3.19576
H 13.11470 2.53235 3.14344
H 12.63370 1.39378 -1.23132
H 12.74863 -0.40043 -1.34432
H 15.04914 0.54565 0.04136
H 14.67972 1.78505 -1.10420
H 10.11627 5.95410 0.42325
H 8.70160 6.86574 0.83167
H 9.01517 6.54722 -0.89082
H 6.71323 7.50848 0.05151
H 5.17958 7.53453 -0.99441
H 6.73449 6.87923 -1.58284
H 2.98199 1.33152 0.83217
H 3.54012 -1.01692 2.57289
H 2.13162 2.01976 2.81518
H 3.82170 2.09571 3.42663
H 2.91652 0.68786 3.65954
H 1.75592 -0.96847 0.78792
H 2.75644 -2.40856 0.79656
H 2.63875 -0.09132 -0.99192
H 2.73473 -1.82994 -1.45322
H 4.20709 -0.90086 -0.92097
H 7.56304 -5.65181 1.10632
H 6.10187 -4.80235 1.70595
H 7.54147 -4.94782 2.79160
H 12.05819 -2.72801 1.80355
H 15.30081 -4.21445 -0.61694
H 15.23226 -2.40623 -1.11654
H 14.29655 -3.71871 -1.87422

