%nproc=24
%mem=175gb
#p cam-b3lyp/Def2SVP td=(nstates=5)

TDDFT excited states in gaussian

0 1
Mg 0.00000 0.00000 0.00000
C -0.21700 -2.21800 2.80100
C -1.25500 2.44200 2.02600
C -0.24500 1.85000 -2.56400
C 0.14600 -2.82400 -2.03700
N -0.61700 -0.00900 2.12600
C -0.59400 -0.90800 3.10500
C -0.93600 -0.30900 4.50200
C -1.77300 0.96400 4.03200
C -1.15500 1.16800 2.66000
C -3.26300 0.68500 3.86300
C 0.34500 0.11000 5.29900
C 0.12400 0.39700 6.78700
H 1.16800 0.03300 7.73300
N -0.18500 1.96100 -0.15200
C -0.70300 2.80000 0.77700
C -0.62000 4.15600 0.19300
C -0.18700 4.01500 -1.22500
C -0.21400 2.58300 -1.38000
C -0.88700 5.40600 0.97400
C 0.18100 5.01300 -2.27700
O 0.30300 4.69000 -3.50800
C 0.31000 6.41400 -1.83700
N -0.26500 -0.41300 -2.02900
C -0.27900 0.56900 -2.93700
C -0.19600 0.02400 -4.33200
C 0.12400 -1.53300 -4.18000
C 0.08600 -1.63200 -2.63500
C -1.45100 0.20500 -5.19700
C 1.37300 -2.07000 -4.92300
C 2.62600 -1.49000 -4.30600
N 0.15000 -2.14400 0.30300
C 0.17300 -3.13600 -0.68800
C 0.17300 -4.43800 0.00400
C 0.13300 -4.11100 1.35800
C 0.08300 -2.69500 1.50200
C 0.14900 -5.71500 -0.62300
C 0.09600 -4.62900 2.71600
O 0.20800 -5.74700 3.22100
C -0.25500 -3.42800 3.70100
C 0.71700 -3.48200 4.84800
O 1.93100 -3.25500 4.66900
O 0.03800 -3.55600 6.00300
C 0.94300 -3.58300 7.18300
H -1.85900 3.22000 2.49700
H -0.21800 2.45300 -3.47400
H 0.27600 -3.74700 -2.60500
H -1.55400 -0.94900 5.13200
H -1.58500 1.83100 4.66500
H -3.48400 -0.37700 3.96900
H -3.51100 1.02700 2.85800
H -3.85200 1.30100 4.54300
H 0.66900 1.09600 4.96600
H 1.13000 -0.63900 5.18900
H -0.84400 0.02600 7.12500
H 0.06200 1.47700 6.92100
H -1.34400 5.18600 1.93800
H -1.65100 5.96300 0.43200
H 0.00700 6.02000 1.08400
H -0.63500 6.74400 -1.40500
H 0.66500 6.97000 -2.70400
H 1.04800 6.46600 -1.03600
H 0.60800 0.50100 -4.89100
H -0.69200 -2.15600 -4.54700
H -1.26700 0.74000 -6.12900
H -2.20400 0.71400 -4.59600
H -1.96700 -0.72000 -5.45300
H 1.35600 -1.75900 -5.96700
H 1.45200 -3.15700 -4.90200
H 2.71400 -0.52200 -4.79800
H 3.48700 -2.12100 -4.52900
H 2.49500 -1.30300 -3.24000
H 0.86700 -6.33300 -0.08400
H 0.40400 -5.64200 -1.68000
H -0.89100 -5.99900 -0.46300
H -1.28300 -3.58100 4.02800
H 0.69800 -4.47800 7.75500
H 0.83300 -2.61900 7.68000
H 2.00000 -3.75400 6.97600
Mg 10.51395 0.95113 0.80734
C 9.37987 -1.38266 3.28652
C 8.48934 3.26881 2.27836
C 11.14373 2.89588 -1.61934
C 11.52628 -1.78253 -1.10263
N 9.15884 0.83778 2.55178
C 8.85598 -0.08380 3.45362
C 8.00478 0.43567 4.64323
C 7.33358 1.70426 3.92279
C 8.40555 1.98374 2.87138
C 6.03589 1.37197 3.20521
C 8.88781 0.86984 5.86543
C 8.11696 1.09463 7.16812
H 8.76011 0.73390 8.42856
N 10.30511 2.91846 0.65057
C 9.45128 3.70364 1.34032
C 9.67181 5.07086 0.84409
C 10.60826 5.00541 -0.31068
C 10.70791 3.57062 -0.48826
C 9.08386 6.28213 1.50783
C 11.28994 6.05992 -1.12893
O 11.87362 5.78100 -2.23544
C 11.17375 7.44300 -0.64409
N 11.03668 0.60812 -1.17545
C 11.30662 1.63047 -2.00603
C 11.92385 1.13889 -3.29357
C 12.23621 -0.41142 -3.05580
C 11.63761 -0.57619 -1.64162
C 11.06359 1.29806 -4.54696
C 13.69679 -0.88050 -3.29947
C 14.61321 -0.27582 -2.26028
N 10.64486 -1.18589 1.09730
C 11.07270 -2.14952 0.15791
C 10.87708 -3.47695 0.77605
C 10.32315 -3.19223 2.03326
C 10.16466 -1.78763 2.17978
C 11.15406 -4.73018 0.16056
C 9.82660 -3.76111 3.26554
O 9.79054 -4.89255 3.74749
C 9.07644 -2.62206 4.08177
C 9.55867 -2.67655 5.50550
O 10.74170 -2.41156 5.78269
O 8.50029 -2.81849 6.32408
C 8.92673 -2.86646 7.74804
H 7.72113 4.00344 2.52137
H 11.47794 3.52752 -2.44567
H 11.90825 -2.67940 -1.59498
H 7.23646 -0.24765 4.98460
H 7.24202 2.54415 4.60657
H 5.83969 0.31009 3.19852
H 6.15554 1.74098 2.19498
H 5.20898 1.94203 3.63833
H 9.26424 1.88620 5.69209
H 9.68072 0.16674 6.03146
H 7.10176 0.68199 7.12280
H 7.96413 2.16853 7.30002
H 8.30682 6.00687 2.23160
H 8.54804 6.84238 0.73396
H 9.84323 6.92981 1.95117
H 10.12320 7.71662 -0.58132
H 11.79976 8.03977 -1.31031
H 11.57294 7.49111 0.37520
H 12.85245 1.65688 -3.49974
H 11.64420 -1.05355 -3.72440
H 11.55806 1.88465 -5.34413
H 10.12677 1.75806 -4.26182
H 10.73400 0.36574 -5.00233
H 14.05153 -0.52570 -4.27026
H 13.81136 -1.95928 -3.28936
H 14.82558 0.71760 -2.66661
H 15.52283 -0.86494 -2.16238
H 14.09000 -0.13713 -1.30704
H 11.64663 -5.34081 0.90554
H 11.77148 -4.60934 -0.72711
H 10.13962 -5.05476 -0.08610
H 8.00570 -2.81476 4.00455
H 8.52638 -3.79330 8.17039
H 8.57848 -1.91698 8.19633
H 9.98509 -2.98156 7.95067

