%nproc=24
%mem=175gb
#p cam-b3lyp/Def2SVP td=(nstates=5)

TDDFT excited states in gaussian

0 1
Mg 0.00000 0.00000 0.00000
C -0.21700 -2.21800 2.80100
C -1.25500 2.44200 2.02600
C -0.24500 1.85000 -2.56400
C 0.14600 -2.82400 -2.03700
N -0.61700 -0.00900 2.12600
C -0.59400 -0.90800 3.10500
C -0.93600 -0.30900 4.50200
C -1.77300 0.96400 4.03200
C -1.15500 1.16800 2.66000
C -3.26300 0.68500 3.86300
C 0.34500 0.11000 5.29900
C 0.12400 0.39700 6.78700
H 1.16800 0.03300 7.73300
N -0.18500 1.96100 -0.15200
C -0.70300 2.80000 0.77700
C -0.62000 4.15600 0.19300
C -0.18700 4.01500 -1.22500
C -0.21400 2.58300 -1.38000
C -0.88700 5.40600 0.97400
C 0.18100 5.01300 -2.27700
O 0.30300 4.69000 -3.50800
C 0.31000 6.41400 -1.83700
N -0.26500 -0.41300 -2.02900
C -0.27900 0.56900 -2.93700
C -0.19600 0.02400 -4.33200
C 0.12400 -1.53300 -4.18000
C 0.08600 -1.63200 -2.63500
C -1.45100 0.20500 -5.19700
C 1.37300 -2.07000 -4.92300
C 2.62600 -1.49000 -4.30600
N 0.15000 -2.14400 0.30300
C 0.17300 -3.13600 -0.68800
C 0.17300 -4.43800 0.00400
C 0.13300 -4.11100 1.35800
C 0.08300 -2.69500 1.50200
C 0.14900 -5.71500 -0.62300
C 0.09600 -4.62900 2.71600
O 0.20800 -5.74700 3.22100
C -0.25500 -3.42800 3.70100
C 0.71700 -3.48200 4.84800
O 1.93100 -3.25500 4.66900
O 0.03800 -3.55600 6.00300
C 0.94300 -3.58300 7.18300
H -1.85900 3.22000 2.49700
H -0.21800 2.45300 -3.47400
H 0.27600 -3.74700 -2.60500
H -1.55400 -0.94900 5.13200
H -1.58500 1.83100 4.66500
H -3.48400 -0.37700 3.96900
H -3.51100 1.02700 2.85800
H -3.85200 1.30100 4.54300
H 0.66900 1.09600 4.96600
H 1.13000 -0.63900 5.18900
H -0.84400 0.02600 7.12500
H 0.06200 1.47700 6.92100
H -1.34400 5.18600 1.93800
H -1.65100 5.96300 0.43200
H 0.00700 6.02000 1.08400
H -0.63500 6.74400 -1.40500
H 0.66500 6.97000 -2.70400
H 1.04800 6.46600 -1.03600
H 0.60800 0.50100 -4.89100
H -0.69200 -2.15600 -4.54700
H -1.26700 0.74000 -6.12900
H -2.20400 0.71400 -4.59600
H -1.96700 -0.72000 -5.45300
H 1.35600 -1.75900 -5.96700
H 1.45200 -3.15700 -4.90200
H 2.71400 -0.52200 -4.79800
H 3.48700 -2.12100 -4.52900
H 2.49500 -1.30300 -3.24000
H 0.86700 -6.33300 -0.08400
H 0.40400 -5.64200 -1.68000
H -0.89100 -5.99900 -0.46300
H -1.28300 -3.58100 4.02800
H 0.69800 -4.47800 7.75500
H 0.83300 -2.61900 7.68000
H 2.00000 -3.75400 6.97600
Mg 8.94102 0.80315 0.68673
C 9.03302 -2.77236 0.98050
C 7.80588 0.88877 3.90212
C 8.42048 3.91096 0.31525
C 8.97270 0.38086 -2.77252
N 8.51540 -0.80103 2.14882
C 8.64647 -2.11888 2.16919
C 8.42412 -2.76589 3.56257
C 7.50647 -1.62117 4.21557
C 7.99190 -0.42420 3.40053
C 6.02314 -1.81240 3.94630
C 9.76473 -2.95011 4.35684
C 9.66365 -3.85254 5.58857
H 10.80351 -4.70097 5.92524
N 8.69319 2.23444 2.03897
C 8.24480 2.09024 3.30366
C 8.22483 3.44353 3.88019
C 8.54110 4.41797 2.80078
C 8.54345 3.54144 1.64675
C 8.00416 3.70189 5.34238
C 8.78656 5.89646 2.80459
O 8.80853 6.57817 1.71940
C 8.90747 6.53756 4.12211
N 8.51391 1.97206 -0.97868
C 8.38599 3.30633 -0.87241
C 8.35546 3.96144 -2.23266
C 8.73413 2.80796 -3.27365
C 8.83522 1.61250 -2.30099
C 7.02393 4.59410 -2.63660
C 9.92658 3.08616 -4.22934
C 11.21544 3.14884 -3.44175
N 9.17840 -0.85705 -0.67541
C 9.13320 -0.81605 -2.08621
C 9.23046 -2.21002 -2.56561
C 9.30291 -2.97319 -1.39053
C 9.23389 -2.11701 -0.25842
C 9.19495 -2.62613 -3.92639
C 9.41137 -4.30926 -0.85029
O 9.59075 -5.42814 -1.32953
C 9.11413 -4.24913 0.70997
C 10.18521 -5.03323 1.41742
O 11.36765 -4.64845 1.39751
O 9.60779 -5.98157 2.17742
C 10.62918 -6.77870 2.90760
H 7.23266 1.01685 4.82076
H 8.35002 4.98505 0.12859
H 9.08803 0.17338 -3.83850
H 7.88843 -3.70745 3.54594
H 7.73636 -1.48367 5.26895
H 5.83995 -2.62435 3.25831
H 5.67710 -0.87643 3.52768
H 5.48229 -1.93941 4.88847
H 10.02764 -2.00061 4.84065
H 10.54422 -3.30564 3.71139
H 8.73474 -4.43564 5.59723
H 9.59156 -3.22038 6.47694
H 7.63468 2.80675 5.85775
H 7.18003 4.41934 5.41951
H 8.88482 4.12112 5.83364
H 7.99885 6.36297 4.69342
H 9.16948 7.57756 3.91810
H 9.72287 6.05502 4.67247
H 9.09435 4.75063 -2.29848
H 7.90157 2.58702 -3.95765
H 7.10950 5.66808 -2.88822
H 6.31782 4.44759 -1.83007
H 6.52032 4.11496 -3.47445
H 9.80816 4.06094 -4.70886
H 10.02839 2.34911 -5.01888
H 11.22689 4.17731 -3.06865
H 12.06903 2.95383 -4.08782
H 11.17783 2.48297 -2.57178
H 9.96721 -3.37475 -4.04330
H 9.34741 -1.78757 -4.60267
H 8.17653 -3.01962 -3.98350
H 8.12230 -4.67326 0.87109
H 10.45739 -7.82890 2.65215
H 10.52439 -6.49551 3.97182
H 11.66496 -6.65616 2.61333

