%nproc=24
%mem=175gb
#p cam-b3lyp/Def2SVP td=(nstates=5)

TDDFT excited states in gaussian

0 1
Mg 0.00000 0.00000 0.00000
C -0.21700 -2.21800 2.80100
C -1.25500 2.44200 2.02600
C -0.24500 1.85000 -2.56400
C 0.14600 -2.82400 -2.03700
N -0.61700 -0.00900 2.12600
C -0.59400 -0.90800 3.10500
C -0.93600 -0.30900 4.50200
C -1.77300 0.96400 4.03200
C -1.15500 1.16800 2.66000
C -3.26300 0.68500 3.86300
C 0.34500 0.11000 5.29900
C 0.12400 0.39700 6.78700
H 1.16800 0.03300 7.73300
N -0.18500 1.96100 -0.15200
C -0.70300 2.80000 0.77700
C -0.62000 4.15600 0.19300
C -0.18700 4.01500 -1.22500
C -0.21400 2.58300 -1.38000
C -0.88700 5.40600 0.97400
C 0.18100 5.01300 -2.27700
O 0.30300 4.69000 -3.50800
C 0.31000 6.41400 -1.83700
N -0.26500 -0.41300 -2.02900
C -0.27900 0.56900 -2.93700
C -0.19600 0.02400 -4.33200
C 0.12400 -1.53300 -4.18000
C 0.08600 -1.63200 -2.63500
C -1.45100 0.20500 -5.19700
C 1.37300 -2.07000 -4.92300
C 2.62600 -1.49000 -4.30600
N 0.15000 -2.14400 0.30300
C 0.17300 -3.13600 -0.68800
C 0.17300 -4.43800 0.00400
C 0.13300 -4.11100 1.35800
C 0.08300 -2.69500 1.50200
C 0.14900 -5.71500 -0.62300
C 0.09600 -4.62900 2.71600
O 0.20800 -5.74700 3.22100
C -0.25500 -3.42800 3.70100
C 0.71700 -3.48200 4.84800
O 1.93100 -3.25500 4.66900
O 0.03800 -3.55600 6.00300
C 0.94300 -3.58300 7.18300
H -1.85900 3.22000 2.49700
H -0.21800 2.45300 -3.47400
H 0.27600 -3.74700 -2.60500
H -1.55400 -0.94900 5.13200
H -1.58500 1.83100 4.66500
H -3.48400 -0.37700 3.96900
H -3.51100 1.02700 2.85800
H -3.85200 1.30100 4.54300
H 0.66900 1.09600 4.96600
H 1.13000 -0.63900 5.18900
H -0.84400 0.02600 7.12500
H 0.06200 1.47700 6.92100
H -1.34400 5.18600 1.93800
H -1.65100 5.96300 0.43200
H 0.00700 6.02000 1.08400
H -0.63500 6.74400 -1.40500
H 0.66500 6.97000 -2.70400
H 1.04800 6.46600 -1.03600
H 0.60800 0.50100 -4.89100
H -0.69200 -2.15600 -4.54700
H -1.26700 0.74000 -6.12900
H -2.20400 0.71400 -4.59600
H -1.96700 -0.72000 -5.45300
H 1.35600 -1.75900 -5.96700
H 1.45200 -3.15700 -4.90200
H 2.71400 -0.52200 -4.79800
H 3.48700 -2.12100 -4.52900
H 2.49500 -1.30300 -3.24000
H 0.86700 -6.33300 -0.08400
H 0.40400 -5.64200 -1.68000
H -0.89100 -5.99900 -0.46300
H -1.28300 -3.58100 4.02800
H 0.69800 -4.47800 7.75500
H 0.83300 -2.61900 7.68000
H 2.00000 -3.75400 6.97600
Mg 13.14509 1.18457 1.00622
C 13.10582 -2.03028 2.60066
C 11.92442 2.47710 3.91723
C 12.74231 3.94553 -0.50450
C 13.25860 -0.48691 -2.04975
N 12.62397 0.24399 2.93910
C 12.70901 -0.97553 3.44888
C 12.42580 -1.05676 4.97294
C 11.53022 0.26785 5.12203
C 12.07907 1.06801 3.94254
C 10.04927 0.02285 4.88518
C 13.73662 -0.96339 5.83029
C 13.57027 -1.34427 7.30304
H 14.67045 -2.03269 7.97248
N 12.90906 3.01931 1.72498
C 12.42091 3.36250 2.93544
C 12.43145 4.83313 2.97128
C 12.81101 5.33253 1.62175
C 12.81536 4.09172 0.87312
C 12.17914 5.61834 4.22556
C 13.10698 6.70205 1.08975
O 13.18261 6.93376 -0.16859
C 13.21311 7.78191 2.08177
N 12.80501 1.66415 -0.98794
C 12.72015 2.94566 -1.38602
C 12.75009 3.05214 -2.89206
C 13.11772 1.58767 -3.41908
C 13.15048 0.83446 -2.07113
C 11.45288 3.51941 -3.55183
C 14.34519 1.46704 -4.36323
C 15.61301 1.78841 -3.60510
N 13.36308 -0.86624 0.36226
C 13.35864 -1.34860 -0.96491
C 13.42122 -2.82281 -0.89256
C 13.43460 -3.09901 0.48295
C 13.36356 -1.88375 1.21616
C 13.40934 -3.71151 -2.00440
C 13.48194 -4.14282 1.48141
O 13.63601 -5.36321 1.45568
C 13.14358 -3.50386 2.89691
C 14.16693 -3.99400 3.88434
O 15.36200 -3.66955 3.76966
O 13.53628 -4.58154 4.91752
C 14.50891 -5.07429 5.92895
H 11.33057 2.94803 4.70110
H 12.71407 4.87584 -1.07653
H 13.39638 -1.07613 -2.95887
H 11.85871 -1.92594 5.28390
H 11.73527 0.77993 6.05857
H 9.85751 -0.98171 4.53843
H 9.74743 0.74510 4.13799
H 9.47834 0.26481 5.78619
H 14.01845 0.09175 5.93977
H 14.52110 -1.54911 5.39195
H 12.62198 -1.86260 7.49018
H 13.49525 -0.42713 7.89232
H 11.76487 4.98530 5.01995
H 11.37835 6.33117 4.00092
H 13.05968 6.17025 4.56129
H 12.28346 7.85059 2.64168
H 13.51633 8.66694 1.51904
H 13.99578 7.51940 2.80228
H 13.51724 3.74491 -3.21559
H 12.29743 1.14768 -4.00506
H 11.58233 4.42223 -4.17813
H 10.71995 3.69671 -2.77600
H 10.95663 2.77558 -4.17283
H 14.27378 2.19789 -5.17250
H 14.44355 0.48834 -4.82091
H 15.64942 2.88144 -3.63725
H 16.47705 1.34997 -4.10032
H 15.52829 1.49221 -2.55309
H 14.15835 -4.46689 -1.80721
H 13.60934 -3.18580 -2.93574
H 12.37998 -4.07607 -1.95170
H 12.13365 -3.81680 3.16462
H 14.30828 -6.14056 6.07220
H 14.38430 -4.41563 6.80894
H 15.55608 -5.09168 5.65045

