%nproc=24
%mem=175gb
#p cam-b3lyp/Def2SVP td=(nstates=5)

TDDFT excited states in gaussian

0 1
Mg 7.87602 0.71504 0.60459
C 9.94279 1.93570 3.27246
C 6.03454 -0.90715 2.97356
C 6.31383 -0.73550 -1.74550
C 10.48866 1.46520 -1.57648
N 8.06323 0.60584 2.80579
C 8.85054 1.16072 3.71497
C 8.39740 0.93467 5.18233
C 7.54073 -0.40623 4.96559
C 7.15427 -0.21523 3.50038
C 8.36952 -1.67489 5.07948
C 7.50331 2.10703 5.71915
C 7.28160 2.10534 7.23328
H 7.19649 3.38822 7.92570
N 6.12356 -0.21629 0.61046
C 5.51430 -0.79719 1.66528
C 4.25917 -1.36088 1.14463
C 4.25518 -1.20882 -0.33576
C 5.60267 -0.72247 -0.55443
C 3.17653 -1.89687 2.03571
C 3.21546 -1.47138 -1.38278
O 3.50732 -1.49462 -2.63062
C 1.86473 -1.79274 -0.89931
N 8.40744 0.21087 -1.34111
C 7.52236 -0.36779 -2.17160
C 8.03687 -0.38477 -3.59124
C 9.35295 0.52375 -3.58214
C 9.42457 0.85035 -2.07429
C 8.37400 -1.76282 -4.16019
C 9.40372 1.69920 -4.59625
C 8.37367 2.74286 -4.22862
N 9.78609 1.71418 0.75096
C 10.73500 1.89552 -0.27897
C 11.92300 2.52815 0.33003
C 11.58911 2.65094 1.68721
C 10.29309 2.11311 1.91211
C 13.12839 2.86151 -0.34970
C 12.04258 3.10356 2.98266
O 13.02465 3.72127 3.39218
C 11.04769 2.54568 4.08961
C 10.69333 3.68113 5.01032
O 10.04277 4.65485 4.59168
O 10.98977 3.33159 6.27535
C 10.64583 4.42140 7.22711
H 5.52952 -1.63605 3.60803
H 5.77498 -1.12542 -2.61214
H 11.30630 1.82001 -2.20756
H 9.20289 0.75203 5.88348
H 6.65501 -0.41522 5.59549
H 9.42396 -1.46045 5.17061
H 8.17432 -2.23597 4.17498
H 8.00110 -2.29316 5.90310
H 6.47117 1.95533 5.37795
H 7.89612 3.05693 5.41252
H 7.97798 1.43461 7.75108
H 6.29646 1.67981 7.43926
H 3.53183 -2.02990 3.06502
H 2.95321 -2.91269 1.69203
H 2.26257 -1.30058 1.99353
H 1.90869 -2.67445 -0.26439
H 1.24243 -1.85977 -1.79380
H 1.51339 -0.96821 -0.26896
H 7.31381 0.05086 -4.26986
H 10.25353 -0.06120 -3.82009
H 7.82441 -1.99693 -5.09143
H 8.16860 -2.50531 -3.40054
H 9.42929 -1.93099 -4.36825
H 9.14477 1.34682 -5.59771
H 10.37864 2.17048 -4.66275
H 7.45464 2.35011 -4.67385
H 8.63757 3.70847 -4.65522
H 8.22347 2.78246 -3.14348
H 13.41708 3.84618 -0.00679
H 12.99536 2.83881 -1.42931
H 13.77912 2.05590 0.00074
H 11.56036 1.73826 4.61385
H 11.55533 4.65272 7.79013
H 9.77701 4.05159 7.80342
H 10.40214 5.39190 6.81094

