%nproc=24
%mem=175gb
#p cam-b3lyp/Def2SVP td=(nstates=5)

TDDFT excited states in gaussian

0 1
Mg 13.14820 1.18714 0.99711
C 15.05371 -0.93159 3.17864
C 14.05101 3.80187 2.99279
C 11.12176 3.00323 -0.63469
C 11.50202 -1.67531 -0.11741
N 14.39522 1.29492 2.82073
C 15.11792 0.43485 3.52239
C 16.01926 1.08556 4.60577
C 15.19244 2.44522 4.82155
C 14.52805 2.54753 3.45013
C 14.10174 2.32590 5.87296
C 17.47039 1.37262 4.08248
C 18.48934 1.71964 5.17018
H 19.86597 1.26089 5.00616
N 13.03146 3.16230 0.84315
C 13.46893 4.07531 1.73551
C 13.12927 5.38876 1.16661
C 12.30885 5.17242 -0.05602
C 12.10015 3.74020 0.01660
C 13.64283 6.67944 1.73568
C 11.78641 6.10269 -1.10857
O 10.89522 5.73256 -1.95214
C 12.28020 7.48677 -1.06386
N 11.40110 0.76295 -0.04694
C 10.74123 1.72783 -0.71139
C 9.67745 1.14228 -1.60910
C 9.92277 -0.43794 -1.59177
C 11.08091 -0.50307 -0.57203
C 8.23228 1.43710 -1.20791
C 10.10837 -1.13645 -2.96666
C 11.40358 -0.68663 -3.60342
N 13.36005 -0.94283 1.29106
C 12.54776 -1.96349 0.75020
C 13.01295 -3.24160 1.32681
C 14.05690 -2.87043 2.18756
C 14.21682 -1.45854 2.16539
C 12.44954 -4.52352 1.07116
C 15.05297 -3.35095 3.11795
O 15.44610 -4.46145 3.47290
C 15.65931 -2.10532 3.89713
C 17.15778 -2.23578 3.88714
O 17.79129 -2.16472 2.81933
O 17.61124 -2.20471 5.15354
C 19.09342 -2.31975 5.19505
H 14.08643 4.65088 3.67602
H 10.46634 3.57215 -1.29819
H 11.10483 -2.62237 -0.48889
H 16.07949 0.53524 5.53706
H 15.85672 3.28938 4.98735
H 13.98467 1.30951 6.21848
H 13.19376 2.67007 5.39529
H 14.29251 3.02209 6.69471
H 17.46817 2.31491 3.51960
H 17.83343 0.55104 3.49611
H 18.12005 1.47598 6.17377
H 18.62098 2.80423 5.18904
H 14.08437 6.53352 2.72924
H 12.77156 7.31816 1.91678
H 14.32538 7.19658 1.05793
H 12.03649 7.92616 -0.09950
H 11.86352 7.97437 -1.94733
H 13.37349 7.47065 -1.13511
H 9.78626 1.50368 -2.62430
H 9.07644 -0.97675 -1.14094
H 7.65076 1.93576 -2.00619
H 8.24366 2.04227 -0.31115
H 7.65403 0.56976 -0.89398
H 9.30814 -0.84416 -3.65103
H 10.10017 -2.21959 -2.90545
H 11.12892 0.25929 -4.07975
H 11.74247 -1.41457 -4.33779
H 12.16025 -0.46474 -2.84193
H 13.27781 -5.20503 0.92963
H 11.79631 -4.50441 0.20127
H 11.89304 -4.68055 1.99902
H 15.25358 -2.12299 4.90938
H 19.32989 -3.16965 5.84270
H 19.46139 -1.32624 5.51331
H 19.59990 -2.60377 4.28003

