%nproc=24
%mem=175gb
#p cam-b3lyp/Def2SVP td=(nstates=5)

TDDFT excited states in gaussian

0 1
Mg 15.76097 1.42656 1.20340
C 18.01116 1.88920 3.96051
C 13.42827 0.40444 3.47240
C 13.90841 0.58224 -1.23023
C 18.55064 1.37679 -0.88490
N 15.82975 1.21755 3.40427
C 16.71838 1.48152 4.35032
C 16.16758 1.37560 5.79772
C 14.94638 0.37114 5.51739
C 14.68830 0.70387 4.04928
C 15.33808 -1.09402 5.61336
C 15.66177 2.75552 6.34725
C 15.39867 2.79015 7.85435
H 15.69055 4.02110 8.58376
N 13.80734 1.08421 1.13496
C 13.01262 0.69822 2.15511
C 11.66333 0.56252 1.58488
C 11.75724 0.74004 0.11030
C 13.19573 0.78946 -0.05818
C 10.43819 0.36941 2.43054
C 10.72378 0.83509 -0.97096
O 11.03673 0.74932 -2.21094
C 9.32413 0.93782 -0.53287
N 16.17686 0.82438 -0.74256
C 15.18526 0.56641 -1.61325
C 15.71763 0.42127 -3.01892
C 17.24896 0.87684 -2.94754
C 17.36631 1.13276 -1.42895
C 15.63163 -0.98088 -3.62137
C 17.69523 2.00016 -3.92307
C 17.02621 3.30350 -3.55011
N 17.88013 1.78126 1.43014
C 18.87332 1.68167 0.43128
C 20.17708 1.90181 1.09019
C 19.85121 2.09289 2.44141
C 18.44552 1.97845 2.61585
C 21.44903 1.85974 0.45261
C 20.37772 2.35483 3.76159
O 21.48799 2.62888 4.21539
C 19.22182 2.10910 4.82455
C 19.20442 3.27845 5.77051
O 18.90139 4.41457 5.36552
O 19.33480 2.82721 7.03136
C 19.31214 3.94929 8.00720
H 12.70128 -0.14551 4.07067
H 13.30544 0.39717 -2.12223
H 19.45901 1.47422 -1.48327
H 16.85267 0.93736 6.51353
H 14.08022 0.62355 6.12353
H 16.40340 -1.21890 5.73840
H 15.01013 -1.54748 4.68715
H 14.76863 -1.58522 6.40759
H 14.64560 2.93848 5.97488
H 16.33919 3.54329 6.08050
H 15.83549 1.92570 8.36900
H 14.32379 2.68652 8.02143
H 10.69950 0.11080 3.46410
H 9.92376 -0.51959 2.04987
H 9.75528 1.22032 2.38318
H 9.07166 0.07249 0.07534
H 8.74260 1.08613 -1.44484
H 9.22346 1.81692 0.11341
H 15.18831 1.07396 -3.70224
H 17.93224 0.04686 -3.18008
H 15.06883 -1.01314 -4.57336
H 15.18092 -1.63928 -2.89068
H 16.58976 -1.46328 -3.80711
H 17.37452 1.76693 -4.94136
H 18.76975 2.14745 -3.94964
H 16.04662 3.22450 -4.03098
H 17.59008 4.14872 -3.93959
H 16.85853 3.36442 -2.46853
H 22.01599 2.69889 0.83323
H 21.35256 1.90253 -0.63027
H 21.80651 0.88482 0.79466
H 19.44157 1.17152 5.33663
H 20.22876 3.87527 8.60052
H 18.35236 3.85464 8.54905
H 19.39473 4.95622 7.61513

