%nproc=24
%mem=175gb
#p cam-b3lyp/Def2SVP td=(nstates=5)

TDDFT excited states in gaussian

0 1
Mg 7.88944 0.71539 0.60517
C 7.61571 -1.13435 3.66828
C 6.63627 3.40307 2.29056
C 7.69413 2.23954 -2.17084
C 8.02234 -2.34002 -1.06592
N 7.24739 0.97672 2.70559
C 7.24674 0.22124 3.79352
C 6.90414 0.98030 5.10348
C 6.07778 2.20043 4.46529
C 6.71233 2.22537 3.07627
C 4.59523 1.90612 4.30792
C 8.18599 1.48524 5.85442
C 7.94543 1.96112 7.28879
H 8.98104 1.71190 8.28773
N 7.72843 2.65418 0.21311
C 7.21606 3.60758 1.01920
C 7.30598 4.86563 0.26197
C 7.76131 4.55021 -1.11930
C 7.72484 3.10191 -1.08460
C 7.05161 6.20872 0.88232
C 8.15119 5.40994 -2.28337
O 8.28524 4.92616 -3.46269
C 8.28021 6.85063 -2.02018
N 7.64911 0.05566 -1.35170
C 7.64927 0.92346 -2.37876
C 7.73987 0.20213 -3.70234
C 8.04554 -1.32507 -3.33928
C 7.98776 -1.23535 -1.79850
C 6.49518 0.27548 -4.58650
C 9.29813 -1.96743 -3.99583
C 10.55320 -1.32263 -3.45321
N 8.01788 -1.36474 1.17493
C 8.03535 -2.48504 0.31545
C 8.01424 -3.68983 1.17012
C 7.96230 -3.18288 2.47733
C 7.93139 -1.76263 2.43932
C 7.99413 -5.03644 0.70928
C 7.91586 -3.52641 3.88037
O 8.00356 -4.57256 4.52193
C 7.56172 -2.21750 4.70967
C 8.51996 -2.12652 5.86553
O 9.73442 -1.94676 5.66707
O 7.82078 -2.04886 7.01247
C 8.72739 -1.94583 8.18689
H 6.04099 4.23741 2.66258
H 7.73786 2.71634 -3.15279
H 8.16062 -3.32923 -1.50751
H 6.27925 0.43043 5.79696
H 6.27635 3.13025 4.99196
H 4.36139 0.87832 4.54264
H 4.36091 2.12069 3.27346
H 4.00598 2.60995 4.90266
H 8.52114 2.42560 5.39820
H 8.95260 0.73499 5.84639
H 6.96393 1.65041 7.66702
H 7.89943 3.05286 7.28909
H 6.57454 6.11380 1.86558
H 6.29987 6.70981 0.26292
H 7.94829 6.83084 0.92234
H 7.33594 7.23453 -1.64145
H 8.65184 7.28543 -2.95008
H 9.02051 6.99619 -1.22559
H 8.55517 0.59126 -4.29982
H 7.22424 -1.98914 -3.64640
H 6.69671 0.69571 -5.58992
H 5.74529 0.86182 -4.07228
H 5.98181 -0.67207 -4.74077
H 9.29648 -1.78515 -5.07329
H 9.35924 -3.04086 -3.85090
H 10.65070 -0.41999 -4.06380
H 11.40935 -1.98151 -3.58327
H 10.41407 -1.00394 -2.41363
H 8.69287 -5.58677 1.32523
H 8.25649 -5.09991 -0.34472
H 6.94508 -5.28776 0.88701
H 6.52705 -2.31017 5.04199
H 8.46345 -2.76175 8.86681
H 8.60713 -0.91412 8.56753
H 9.78149 -2.13826 8.02474

