%nproc=24
%mem=175gb
#p cam-b3lyp/Def2SVP td=(nstates=5)

TDDFT excited states in gaussian

0 1
Mg 15.76730 1.42798 1.20380
C 17.36586 0.01262 4.08831
C 13.21572 2.36671 3.26360
C 14.13078 2.28249 -1.37671
C 17.83420 -0.58096 -0.75524
N 15.44753 1.16708 3.37680
C 16.15175 0.66795 4.38142
C 15.55858 0.95365 5.78716
C 14.02539 1.17069 5.36163
C 14.23456 1.63162 3.92063
C 13.21904 -0.11718 5.33886
C 16.16234 2.24688 6.43912
C 15.86123 2.41617 7.92990
H 16.88234 3.01905 8.78215
N 14.19546 2.62522 1.01800
C 13.27463 2.91163 1.96209
C 12.31322 3.82336 1.32287
C 12.64998 3.92136 -0.12340
C 13.68161 2.90849 -0.22306
C 11.25642 4.56135 2.09227
C 12.12099 4.77526 -1.23571
O 12.39284 4.52639 -2.46330
C 11.19995 5.85507 -0.85207
N 15.80326 0.77379 -0.76929
C 15.02593 1.34997 -1.70294
C 15.42023 0.90535 -3.09119
C 16.78648 0.09396 -2.91060
C 16.90389 0.13552 -1.37116
C 14.40260 0.03132 -3.82391
C 18.00101 0.56341 -3.75747
C 18.45531 1.92925 -3.29542
N 17.44534 0.11324 1.55549
C 18.14670 -0.64988 0.59642
C 19.12976 -1.47353 1.32966
C 18.91471 -1.14690 2.67708
C 17.85764 -0.20250 2.77811
C 20.02738 -2.41245 0.74757
C 19.33442 -1.39424 4.03773
O 20.24491 -2.03332 4.56340
C 18.26534 -0.74947 5.02147
C 19.01003 0.03086 6.06981
O 19.66804 1.03924 5.75867
O 18.64812 -0.41104 7.28805
C 19.35200 0.33999 8.36151
H 12.26315 2.50494 3.77584
H 13.67302 2.62485 -2.30769
H 18.58174 -1.16019 -1.30144
H 15.63695 0.13191 6.48885
H 13.55978 1.95725 5.94977
H 13.84143 -0.98508 5.49862
H 12.75702 -0.15774 4.36114
H 12.39725 -0.06017 6.05841
H 15.63973 3.12608 6.04085
H 17.22144 2.29670 6.27645
H 15.48081 1.49172 8.38115
H 15.03793 3.12628 8.03917
H 11.14567 4.16203 3.10799
H 10.29800 4.34342 1.60874
H 11.41385 5.64203 2.09375
H 10.34050 5.43110 -0.33819
H 11.00075 6.40958 -1.77115
H 11.70650 6.50776 -0.13234
H 15.60041 1.75834 -3.73387
H 16.67182 -0.96407 -3.18857
H 14.08898 0.45033 -4.79867
H 13.54646 -0.11046 -3.17780
H 14.72281 -0.99222 -4.01108
H 17.71277 0.67050 -4.80609
H 18.84204 -0.12103 -3.72295
H 17.77802 2.60655 -3.82422
H 19.49079 2.10505 -3.57986
H 18.27978 2.05987 -2.22128
H 20.98538 -2.26690 1.22876
H 20.09849 -2.27921 -0.32991
H 19.52960 -3.34883 1.01342
H 17.68430 -1.56497 5.45383
H 19.86435 -0.39902 8.98524
H 18.57698 0.96047 8.84948
H 20.17749 0.97798 8.06826

