%nproc=24
%mem=175gb
#p cam-b3lyp/Def2SVP td=(nstates=5)

TDDFT excited states in gaussian

0 1
Mg 0.00000 0.00000 0.00000
C -0.21700 -2.21800 2.80100
C -1.25500 2.44200 2.02600
C -0.24500 1.85000 -2.56400
C 0.14600 -2.82400 -2.03700
N -0.61700 -0.00900 2.12600
C -0.59400 -0.90800 3.10500
C -0.93600 -0.30900 4.50200
C -1.77300 0.96400 4.03200
C -1.15500 1.16800 2.66000
C -3.26300 0.68500 3.86300
C 0.34500 0.11000 5.29900
C 0.12400 0.39700 6.78700
H 1.16800 0.03300 7.73300
N -0.18500 1.96100 -0.15200
C -0.70300 2.80000 0.77700
C -0.62000 4.15600 0.19300
C -0.18700 4.01500 -1.22500
C -0.21400 2.58300 -1.38000
C -0.88700 5.40600 0.97400
C 0.18100 5.01300 -2.27700
O 0.30300 4.69000 -3.50800
C 0.31000 6.41400 -1.83700
N -0.26500 -0.41300 -2.02900
C -0.27900 0.56900 -2.93700
C -0.19600 0.02400 -4.33200
C 0.12400 -1.53300 -4.18000
C 0.08600 -1.63200 -2.63500
C -1.45100 0.20500 -5.19700
C 1.37300 -2.07000 -4.92300
C 2.62600 -1.49000 -4.30600
N 0.15000 -2.14400 0.30300
C 0.17300 -3.13600 -0.68800
C 0.17300 -4.43800 0.00400
C 0.13300 -4.11100 1.35800
C 0.08300 -2.69500 1.50200
C 0.14900 -5.71500 -0.62300
C 0.09600 -4.62900 2.71600
O 0.20800 -5.74700 3.22100
C -0.25500 -3.42800 3.70100
C 0.71700 -3.48200 4.84800
O 1.93100 -3.25500 4.66900
O 0.03800 -3.55600 6.00300
C 0.94300 -3.58300 7.18300
H -1.85900 3.22000 2.49700
H -0.21800 2.45300 -3.47400
H 0.27600 -3.74700 -2.60500
H -1.55400 -0.94900 5.13200
H -1.58500 1.83100 4.66500
H -3.48400 -0.37700 3.96900
H -3.51100 1.02700 2.85800
H -3.85200 1.30100 4.54300
H 0.66900 1.09600 4.96600
H 1.13000 -0.63900 5.18900
H -0.84400 0.02600 7.12500
H 0.06200 1.47700 6.92100
H -1.34400 5.18600 1.93800
H -1.65100 5.96300 0.43200
H 0.00700 6.02000 1.08400
H -0.63500 6.74400 -1.40500
H 0.66500 6.97000 -2.70400
H 1.04800 6.46600 -1.03600
H 0.60800 0.50100 -4.89100
H -0.69200 -2.15600 -4.54700
H -1.26700 0.74000 -6.12900
H -2.20400 0.71400 -4.59600
H -1.96700 -0.72000 -5.45300
H 1.35600 -1.75900 -5.96700
H 1.45200 -3.15700 -4.90200
H 2.71400 -0.52200 -4.79800
H 3.48700 -2.12100 -4.52900
H 2.49500 -1.30300 -3.24000
H 0.86700 -6.33300 -0.08400
H 0.40400 -5.64200 -1.68000
H -0.89100 -5.99900 -0.46300
H -1.28300 -3.58100 4.02800
H 0.69800 -4.47800 7.75500
H 0.83300 -2.61900 7.68000
H 2.00000 -3.75400 6.97600
Mg 8.94384 0.80877 0.67899
C 10.59150 -1.30862 3.06246
C 9.55126 3.41291 2.79656
C 7.11171 2.61585 -1.17713
C 7.49214 -2.06269 -0.66003
N 9.95075 0.91280 2.64560
C 10.59224 0.05465 3.42432
C 11.34112 0.70518 4.61829
C 10.47409 2.05128 4.74132
C 9.98541 2.16000 3.29839
C 9.26206 1.90584 5.64640
C 12.84207 1.01724 4.28393
C 13.71149 1.36563 5.49409
H 15.10435 0.92702 5.49982
N 8.81860 2.78379 0.53009
C 9.12744 3.69256 1.47880
C 8.84270 5.00763 0.88409
C 8.18522 4.79403 -0.43379
C 7.98992 3.35845 -0.40134
C 9.26205 6.29860 1.52516
C 7.78536 5.72893 -1.53483
O 7.01241 5.35641 -2.48698
C 8.24946 7.11885 -1.41556
N 7.34774 0.37308 -0.57996
C 6.76238 1.33645 -1.31290
C 5.82813 0.74686 -2.34244
C 6.09231 -0.83007 -2.30925
C 7.11433 -0.89115 -1.15290
C 4.33994 1.01803 -2.12302
C 6.45891 -1.51074 -3.65646
C 7.81704 -1.03674 -4.12143
N 9.14813 -1.32134 0.97725
C 8.42497 -2.34661 0.32922
C 8.83276 -3.62476 0.94765
C 9.75508 -3.24937 1.93603
C 9.89596 -1.83532 1.94732
C 8.32454 -4.91112 0.61133
C 10.63357 -3.72696 2.97951
O 10.99522 -4.83602 3.37058
C 11.11928 -2.48212 3.84025
C 12.60892 -2.59259 4.01714
O 13.37018 -2.50129 3.03798
O 12.89958 -2.56958 5.33067
C 14.36638 -2.66543 5.55676
H 9.48842 4.25467 3.48676
H 6.53641 3.18337 -1.91227
H 7.15846 -3.01074 -1.08726
H 11.29215 0.14539 5.54458
H 11.10000 2.90227 4.99706
H 9.11740 0.88421 5.96497
H 8.41620 2.24323 5.06181
H 9.33819 2.59532 6.49207
H 12.89671 1.96561 3.73406
H 13.28765 0.20711 3.74009
H 13.22291 1.10596 6.44109
H 13.82395 2.45159 5.53947
H 9.57766 6.14752 2.56486
H 8.36576 6.92366 1.60148
H 10.01658 6.83224 0.94328
H 7.88045 7.54423 -0.48533
H 7.93976 7.61066 -2.33972
H 9.34318 7.11801 -1.34920
H 6.05806 1.12093 -3.33254
H 5.20408 -1.38502 -1.97325
H 3.85587 1.51777 -2.98326
H 4.23004 1.61330 -1.22630
H 3.73959 0.13966 -1.89226
H 5.74661 -1.22149 -4.43307
H 6.45886 -2.59450 -3.60691
H 7.59052 -0.08931 -4.61959
H 8.25585 -1.75191 -4.81425
H 8.46899 -0.81331 -3.26897
H 9.17384 -5.57997 0.56848
H 7.78529 -4.89101 -0.33343
H 7.65848 -5.08581 1.46052
H 10.59018 -2.51642 4.79337
H 14.53215 -3.51926 6.22097
H 14.67707 -1.67072 5.92796
H 14.98763 -2.93252 4.70991

