%nproc=24
%mem=175gb
#p cam-b3lyp/Def2SVP td=(nstates=5)

TDDFT excited states in gaussian

0 1
Mg 8.92617 0.80187 0.68511
C 9.10284 3.49575 3.04962
C 9.42325 -1.32913 3.30167
C 9.22534 -1.55387 -1.41927
C 9.58448 3.13812 -1.81574
N 9.21160 1.15755 2.84943
C 9.19825 2.21904 3.64153
C 9.21163 1.88984 5.15843
C 9.88306 0.43304 5.08242
C 9.45398 0.03951 3.67044
C 11.40164 0.46716 5.12808
C 7.76760 1.82563 5.76890
C 7.71582 1.81530 7.29827
H 6.61406 2.50664 7.96208
N 8.78507 -1.16274 0.92796
C 8.99848 -1.85966 2.06375
C 8.78761 -3.27299 1.71419
C 8.59377 -3.36814 0.24174
C 8.88767 -2.00465 -0.15147
C 8.70487 -4.36227 2.74377
C 8.21987 -4.50205 -0.66414
O 8.34130 -4.41507 -1.93714
C 7.79585 -5.74966 -0.01210
N 9.55216 0.75276 -1.29682
C 9.53712 -0.39422 -1.99835
C 9.76407 -0.13717 -3.46899
C 9.69359 1.45097 -3.64343
C 9.51925 1.86051 -2.16449
C 11.08537 -0.65329 -4.03837
C 8.68227 2.00020 -4.68663
C 7.26787 1.73377 -4.22418
N 9.09996 2.95249 0.57243
C 9.40608 3.72485 -0.56942
C 9.52673 5.12881 -0.12585
C 9.30338 5.07225 1.25814
C 9.08064 3.72531 1.65264
C 9.85513 6.23799 -0.95530
C 9.21590 5.84436 2.47669
O 9.23144 7.04438 2.74772
C 9.20743 4.84223 3.71041
C 8.09735 5.25595 4.63727
O 6.91005 5.17901 4.27532
O 8.60437 5.46633 5.86570
C 7.53977 5.86815 6.82330
H 9.79936 -2.06631 4.01159
H 9.23268 -2.31427 -2.20362
H 9.69106 3.93907 -2.55044
H 9.82344 2.55024 5.76121
H 9.44754 -0.24133 5.81516
H 11.78344 1.47637 5.08494
H 11.73460 -0.10036 4.26895
H 11.76464 -0.07456 6.00621
H 7.33389 0.83931 5.55955
H 7.15880 2.62439 5.39211
H 8.67515 2.10331 7.74513
H 7.56214 0.78664 7.63333
H 9.04979 -4.01490 3.72549
H 9.43173 -5.12973 2.45644
H 7.71336 -4.81693 2.79721
H 8.59262 -6.10748 0.63565
H 7.48436 -6.41167 -0.82241
H 6.93823 -5.53256 0.63441
H 8.98278 -0.59129 -4.06603
H 10.65649 1.86775 -3.97351
H 10.95234 -1.34740 -4.88960
H 11.63728 -1.13174 -3.24024
H 11.77878 0.11835 -4.36847
H 8.80059 1.47885 -5.63971
H 8.79772 3.06086 -4.88326
H 7.09382 0.70207 -4.54418
H 6.57227 2.41876 -4.70478
H 7.20082 1.75536 -3.13025
H 9.18929 7.04364 -0.67586
H 9.75784 5.98843 -2.00983
H 10.89730 6.39648 -0.66544
H 10.18528 4.90421 4.18952
H 7.85044 6.81977 7.26556
H 7.41640 5.00989 7.51026
H 6.57117 6.13112 6.41451

