%nproc=24
%mem=175gb
#p cam-b3lyp/Def2SVP td=(nstates=5)

TDDFT excited states in gaussian

0 1
Mg 0.00000 0.00000 0.00000
C -0.21700 -2.21800 2.80100
C -1.25500 2.44200 2.02600
C -0.24500 1.85000 -2.56400
C 0.14600 -2.82400 -2.03700
N -0.61700 -0.00900 2.12600
C -0.59400 -0.90800 3.10500
C -0.93600 -0.30900 4.50200
C -1.77300 0.96400 4.03200
C -1.15500 1.16800 2.66000
C -3.26300 0.68500 3.86300
C 0.34500 0.11000 5.29900
C 0.12400 0.39700 6.78700
H 1.16800 0.03300 7.73300
N -0.18500 1.96100 -0.15200
C -0.70300 2.80000 0.77700
C -0.62000 4.15600 0.19300
C -0.18700 4.01500 -1.22500
C -0.21400 2.58300 -1.38000
C -0.88700 5.40600 0.97400
C 0.18100 5.01300 -2.27700
O 0.30300 4.69000 -3.50800
C 0.31000 6.41400 -1.83700
N -0.26500 -0.41300 -2.02900
C -0.27900 0.56900 -2.93700
C -0.19600 0.02400 -4.33200
C 0.12400 -1.53300 -4.18000
C 0.08600 -1.63200 -2.63500
C -1.45100 0.20500 -5.19700
C 1.37300 -2.07000 -4.92300
C 2.62600 -1.49000 -4.30600
N 0.15000 -2.14400 0.30300
C 0.17300 -3.13600 -0.68800
C 0.17300 -4.43800 0.00400
C 0.13300 -4.11100 1.35800
C 0.08300 -2.69500 1.50200
C 0.14900 -5.71500 -0.62300
C 0.09600 -4.62900 2.71600
O 0.20800 -5.74700 3.22100
C -0.25500 -3.42800 3.70100
C 0.71700 -3.48200 4.84800
O 1.93100 -3.25500 4.66900
O 0.03800 -3.55600 6.00300
C 0.94300 -3.58300 7.18300
H -1.85900 3.22000 2.49700
H -0.21800 2.45300 -3.47400
H 0.27600 -3.74700 -2.60500
H -1.55400 -0.94900 5.13200
H -1.58500 1.83100 4.66500
H -3.48400 -0.37700 3.96900
H -3.51100 1.02700 2.85800
H -3.85200 1.30100 4.54300
H 0.66900 1.09600 4.96600
H 1.13000 -0.63900 5.18900
H -0.84400 0.02600 7.12500
H 0.06200 1.47700 6.92100
H -1.34400 5.18600 1.93800
H -1.65100 5.96300 0.43200
H 0.00700 6.02000 1.08400
H -0.63500 6.74400 -1.40500
H 0.66500 6.97000 -2.70400
H 1.04800 6.46600 -1.03600
H 0.60800 0.50100 -4.89100
H -0.69200 -2.15600 -4.54700
H -1.26700 0.74000 -6.12900
H -2.20400 0.71400 -4.59600
H -1.96700 -0.72000 -5.45300
H 1.35600 -1.75900 -5.96700
H 1.45200 -3.15700 -4.90200
H 2.71400 -0.52200 -4.79800
H 3.48700 -2.12100 -4.52900
H 2.49500 -1.30300 -3.24000
H 0.86700 -6.33300 -0.08400
H 0.40400 -5.64200 -1.68000
H -0.89100 -5.99900 -0.46300
H -1.28300 -3.58100 4.02800
H 0.69800 -4.47800 7.75500
H 0.83300 -2.61900 7.68000
H 2.00000 -3.75400 6.97600
Mg 7.87647 0.71190 0.59090
C 8.58066 -1.99579 -1.65668
C 8.83313 2.83342 -1.90281
C 7.69793 3.09145 2.68213
C 8.07962 -1.58661 3.20266
N 8.59351 0.34595 -1.46925
C 8.76201 -0.72194 -2.23447
C 9.06830 -0.40484 -3.72283
C 9.67749 1.06900 -3.53425
C 8.96798 1.46304 -2.24042
C 11.17535 1.07281 -3.27784
C 7.77289 -0.38202 -4.60793
C 8.02516 -0.38542 -6.11727
H 7.09318 -1.10970 -6.97710
N 7.74098 2.67029 0.29947
C 8.15919 3.36312 -0.78050
C 7.85060 4.77348 -0.49797
C 7.36651 4.87567 0.90557
C 7.60802 3.52327 1.36684
C 7.94851 5.85193 -1.53758
C 6.79431 6.00712 1.70471
O 6.66290 5.93357 2.97756
C 6.47929 7.23830 0.96549
N 8.09574 0.79288 2.65674
C 7.91540 1.94478 3.32646
C 7.85212 1.70549 4.81614
C 7.78516 0.11755 4.99374
C 7.91704 -0.30826 3.51499
C 9.02200 2.25937 5.62915
C 6.60004 -0.44851 5.82304
C 5.29964 -0.22159 5.08625
N 8.07410 -1.43266 0.76363
C 8.16549 -2.18776 1.95340
C 8.40411 -3.59179 1.56074
C 8.45836 -3.55212 0.15932
C 8.28721 -2.21448 -0.28890
C 8.58705 -4.68556 2.45310
C 8.63210 -4.33607 -1.04232
O 8.72879 -5.53748 -1.28932
C 8.84528 -3.34454 -2.26617
C 7.95087 -3.79363 -3.38905
O 6.71393 -3.74371 -3.27042
O 8.69612 -4.00113 -4.48992
C 7.85211 -4.43744 -5.63408
H 9.32540 3.57406 -2.53368
H 7.53203 3.85815 3.44249
H 8.05689 -2.37862 3.95423
H 9.80257 -1.05448 -4.18390
H 9.38044 1.72620 -4.34740
H 11.56421 0.07392 -3.14687
H 11.31814 1.65550 -2.37721
H 11.69264 1.61635 -4.07364
H 7.28362 0.59472 -4.50143
H 7.12009 -1.19279 -4.34885
H 9.06044 -0.65278 -6.36154
H 7.91726 0.63627 -6.48944
H 8.48917 5.50539 -2.42697
H 8.58604 6.63977 -1.12198
H 6.97705 6.28099 -1.79219
H 7.38020 7.61082 0.48376
H 5.99811 7.89880 1.68942
H 5.77215 6.99440 0.16482
H 6.95768 2.14461 5.24070
H 8.67286 -0.27213 5.51333
H 8.70683 2.95680 6.42811
H 9.71000 2.74509 4.94999
H 9.65383 1.50817 6.10000
H 6.51496 0.08339 6.77383
H 6.69868 -1.50429 6.05236
H 5.04182 0.80796 5.35204
H 4.53857 -0.91997 5.42842
H 5.45135 -0.25375 4.00107
H 8.00863 -5.50998 2.05781
H 8.27686 -4.42997 3.46415
H 9.66938 -4.82007 2.37744
H 9.89988 -3.38573 -2.54131
H 8.26620 -5.38449 -5.99369
H 7.84761 -3.58817 -6.34293
H 6.82802 -4.72142 -5.42183

