%nproc=24
%mem=175gb
#p cam-b3lyp/Def2SVP td=(nstates=5)

TDDFT excited states in gaussian

0 1
Mg 31.53166 2.83139 2.40285
C 29.25494 4.43658 4.66537
C 33.77486 2.72692 4.97029
C 33.71150 1.82997 0.32611
C 29.59156 4.07443 -0.21184
N 31.41326 3.52365 4.50023
C 30.47589 4.06323 5.26480
C 30.83923 4.13744 6.77212
C 32.43913 4.11684 6.63513
C 32.56092 3.37930 5.30326
C 33.04707 5.50006 6.47246
C 30.31544 2.89529 7.57508
C 30.36274 3.04687 9.09710
H 29.29941 2.43693 9.89069
N 33.26363 1.91010 2.70294
C 34.02951 1.95862 3.81305
C 35.20915 1.12832 3.52460
C 35.15668 0.71946 2.09463
C 34.02810 1.50500 1.63711
C 36.20246 0.73190 4.57798
C 35.99282 -0.21318 1.27169
O 35.91523 -0.23607 -0.00749
C 36.97181 -1.03248 2.00095
N 31.76152 3.11022 0.35547
C 32.76804 2.52117 -0.31376
C 32.57277 2.63840 -1.80658
C 31.09612 3.22043 -2.00232
C 30.70926 3.43205 -0.52214
C 33.57297 3.53160 -2.54019
C 30.13305 2.40594 -2.90883
C 29.79930 1.08569 -2.25237
N 29.64978 3.87753 2.22341
C 29.03323 4.32619 1.03486
C 27.82790 5.08403 1.42893
C 27.83947 5.04293 2.83131
C 28.98294 4.32839 3.28007
C 26.92741 5.73577 0.53985
C 27.15007 5.45064 4.03431
O 26.07887 6.00548 4.27600
C 28.10346 5.18456 5.27795
C 27.29869 4.48512 6.33890
O 26.85623 3.33933 6.14398
O 27.36853 5.19124 7.48210
C 26.59482 4.53168 8.56754
H 34.62889 2.84816 5.63723
H 34.37359 1.41273 -0.43614
H 28.88124 4.40993 -0.97049
H 30.52050 5.04419 7.27211
H 32.89657 3.53915 7.43411
H 32.29031 6.26171 6.35694
H 33.66793 5.44632 5.58776
H 33.72489 5.71405 7.30378
H 31.01980 2.06328 7.44715
H 29.32093 2.63524 7.26857
H 30.52145 4.08814 9.40290
H 31.24422 2.52039 9.47104
H 36.07043 1.31755 5.49612
H 37.19220 1.02319 4.20997
H 36.20089 -0.34218 4.77550
H 37.65586 -0.38230 2.54114
H 37.40990 -1.69785 1.25446
H 36.44034 -1.62520 2.75383
H 32.63355 1.66712 -2.28200
H 31.10924 4.21628 -2.46916
H 34.11345 3.00745 -3.35089
H 34.26956 3.93116 -1.81518
H 33.15122 4.43494 -2.97757
H 30.61832 2.16658 -3.85824
H 29.21190 2.92991 -3.14109
H 30.64945 0.45296 -2.52439
H 28.86751 0.68612 -2.64752
H 29.79426 1.17938 -1.16019
H 25.92832 5.51427 0.89093
H 27.07178 5.40387 -0.48620
H 27.23221 6.77610 0.68149
H 28.47619 6.15159 5.61779
H 25.87939 5.26949 8.94366
H 27.34822 4.15067 9.28237
H 25.93402 3.71900 8.28942

