%nproc=24
%mem=175gb
#p cam-b3lyp/Def2SVP td=(nstates=5)

TDDFT excited states in gaussian

0 1
Mg 0.00000 0.00000 0.00000
C -0.21700 -2.21800 2.80100
C -1.25500 2.44200 2.02600
C -0.24500 1.85000 -2.56400
C 0.14600 -2.82400 -2.03700
N -0.61700 -0.00900 2.12600
C -0.59400 -0.90800 3.10500
C -0.93600 -0.30900 4.50200
C -1.77300 0.96400 4.03200
C -1.15500 1.16800 2.66000
C -3.26300 0.68500 3.86300
C 0.34500 0.11000 5.29900
C 0.12400 0.39700 6.78700
H 1.16800 0.03300 7.73300
N -0.18500 1.96100 -0.15200
C -0.70300 2.80000 0.77700
C -0.62000 4.15600 0.19300
C -0.18700 4.01500 -1.22500
C -0.21400 2.58300 -1.38000
C -0.88700 5.40600 0.97400
C 0.18100 5.01300 -2.27700
O 0.30300 4.69000 -3.50800
C 0.31000 6.41400 -1.83700
N -0.26500 -0.41300 -2.02900
C -0.27900 0.56900 -2.93700
C -0.19600 0.02400 -4.33200
C 0.12400 -1.53300 -4.18000
C 0.08600 -1.63200 -2.63500
C -1.45100 0.20500 -5.19700
C 1.37300 -2.07000 -4.92300
C 2.62600 -1.49000 -4.30600
N 0.15000 -2.14400 0.30300
C 0.17300 -3.13600 -0.68800
C 0.17300 -4.43800 0.00400
C 0.13300 -4.11100 1.35800
C 0.08300 -2.69500 1.50200
C 0.14900 -5.71500 -0.62300
C 0.09600 -4.62900 2.71600
O 0.20800 -5.74700 3.22100
C -0.25500 -3.42800 3.70100
C 0.71700 -3.48200 4.84800
O 1.93100 -3.25500 4.66900
O 0.03800 -3.55600 6.00300
C 0.94300 -3.58300 7.18300
H -1.85900 3.22000 2.49700
H -0.21800 2.45300 -3.47400
H 0.27600 -3.74700 -2.60500
H -1.55400 -0.94900 5.13200
H -1.58500 1.83100 4.66500
H -3.48400 -0.37700 3.96900
H -3.51100 1.02700 2.85800
H -3.85200 1.30100 4.54300
H 0.66900 1.09600 4.96600
H 1.13000 -0.63900 5.18900
H -0.84400 0.02600 7.12500
H 0.06200 1.47700 6.92100
H -1.34400 5.18600 1.93800
H -1.65100 5.96300 0.43200
H 0.00700 6.02000 1.08400
H -0.63500 6.74400 -1.40500
H 0.66500 6.97000 -2.70400
H 1.04800 6.46600 -1.03600
H 0.60800 0.50100 -4.89100
H -0.69200 -2.15600 -4.54700
H -1.26700 0.74000 -6.12900
H -2.20400 0.71400 -4.59600
H -1.96700 -0.72000 -5.45300
H 1.35600 -1.75900 -5.96700
H 1.45200 -3.15700 -4.90200
H 2.71400 -0.52200 -4.79800
H 3.48700 -2.12100 -4.52900
H 2.49500 -1.30300 -3.24000
H 0.86700 -6.33300 -0.08400
H 0.40400 -5.64200 -1.68000
H -0.89100 -5.99900 -0.46300
H -1.28300 -3.58100 4.02800
H 0.69800 -4.47800 7.75500
H 0.83300 -2.61900 7.68000
H 2.00000 -3.75400 6.97600
Mg 15.76379 1.42385 1.20696
C 13.65245 -1.10713 2.62661
C 13.10562 3.55054 1.42134
C 17.45036 3.54021 -0.44953
C 17.83378 -1.13805 0.06787
N 13.69871 1.14125 1.94712
C 13.02829 0.15327 2.52052
C 11.63842 0.55896 3.08020
C 11.36649 1.83642 2.14585
C 12.81089 2.22919 1.84238
C 10.68072 1.48833 0.83517
C 11.69802 0.95851 4.59638
C 10.33666 1.06724 5.28677
H 10.23108 0.66073 6.68537
N 15.52982 3.38519 1.01464
C 14.38560 4.08616 1.15847
C 14.73788 5.48989 0.89464
C 16.14822 5.53874 0.42212
C 16.43043 4.12366 0.28797
C 13.80079 6.62969 1.17059
C 17.08348 6.67183 0.12614
O 18.18628 6.48843 -0.50077
C 16.62693 8.01584 0.50912
N 17.28797 1.22715 -0.19323
C 17.88533 2.30972 -0.72156
C 19.12843 1.92689 -1.48871
C 19.37627 0.38123 -1.16149
C 18.12851 0.10279 -0.29490
C 19.06190 2.12188 -3.00329
C 20.77046 -0.00347 -0.59501
C 20.94366 0.57881 0.78931
N 15.87320 -0.71843 1.46524
C 16.80482 -1.60198 0.87745
C 16.40554 -2.97231 1.25850
C 15.24686 -2.79094 2.02860
C 14.93385 -1.40681 2.10417
C 17.05794 -4.17139 0.85514
C 14.21136 -3.45644 2.78593
O 14.00510 -4.61561 3.14302
C 13.06139 -2.40552 3.10143
C 12.71097 -2.52416 4.55939
O 13.54025 -2.22167 5.43540
O 11.39247 -2.76497 4.67749
C 10.99445 -2.87974 6.10585
H 12.27581 4.23235 1.23313
H 18.12774 4.23596 -0.95009
H 18.48315 -1.98443 -0.16585
H 10.85817 -0.17901 2.93738
H 10.86356 2.62786 2.69544
H 10.59558 0.42083 0.69610
H 11.29455 1.92343 0.05738
H 9.71177 1.99172 0.77138
H 12.03443 2.00001 4.67925
H 12.32787 0.28435 5.14358
H 9.53553 0.61123 4.69249
H 10.06008 2.12280 5.34431
H 12.77951 6.27486 1.35630
H 13.72247 7.21048 0.24516
H 14.15690 7.28384 1.96930
H 15.68880 8.23582 0.00513
H 17.46708 8.68068 0.29932
H 16.41521 8.02028 1.58418
H 19.98338 2.49924 -1.15019
H 19.28106 -0.24586 -2.06012
H 19.86195 2.77842 -3.39439
H 18.08735 2.51944 -3.25377
H 19.09475 1.20471 -3.58887
H 21.56226 0.42603 -1.21367
H 20.93933 -1.07433 -0.55349
H 21.26798 1.60398 0.58701
H 21.69999 0.02790 1.34474
H 19.98376 0.63456 1.31574
H 17.11889 -4.80267 1.73165
H 18.04346 -3.96798 0.44144
H 16.35865 -4.52730 0.09383
H 12.21466 -2.64289 2.45624
H 10.49844 -3.84827 6.22247
H 10.39322 -1.97665 6.32194
H 11.78596 -2.95748 6.84201

