%nproc=24
%mem=175gb
#p cam-b3lyp/Def2SVP td=(nstates=5)

TDDFT excited states in gaussian

0 1
Mg 7.89044 0.71462 0.59293
C 7.30563 4.13616 1.50402
C 7.17136 1.60351 -2.62069
C 7.95656 -2.36484 -0.16864
C 7.44071 -0.11073 3.94886
N 7.32621 2.65062 -0.31581
C 7.19515 3.89494 0.11873
C 7.01047 4.95186 -1.00305
C 6.41880 3.98990 -2.14473
C 7.03487 2.66725 -1.69336
C 4.90608 3.85444 -2.09315
C 8.37014 5.59860 -1.44466
C 8.23437 6.85232 -2.31156
H 9.21458 7.92210 -2.14661
N 8.08782 -0.16744 -1.17387
C 7.76789 0.34629 -2.38011
C 8.08261 -0.70394 -3.36099
C 8.45961 -1.93896 -2.62119
C 8.15588 -1.53563 -1.26282
C 8.08675 -0.45924 -4.84204
C 8.99178 -3.26808 -3.06441
O 9.02365 -4.27769 -2.27542
C 9.38763 -3.37810 -4.47603
N 7.51506 -1.01569 1.68264
C 7.66696 -2.23005 1.12569
C 7.61089 -3.31980 2.16956
C 7.63163 -2.56553 3.57961
C 7.60490 -1.10279 3.08455
C 6.39365 -4.24197 2.10384
C 8.73785 -2.98515 4.58602
C 10.09529 -2.57652 4.06088
N 7.63643 1.80322 2.44185
C 7.43866 1.26104 3.73065
C 7.20228 2.39446 4.64821
C 7.25650 3.52489 3.81895
C 7.48878 3.12288 2.47585
C 6.92915 2.29380 6.04155
C 7.15948 4.96612 3.77268
O 7.05753 5.85739 4.61469
C 7.06108 5.41742 2.25181
C 8.02962 6.54848 2.03934
O 9.25459 6.35899 2.14015
O 7.36693 7.60846 1.54170
C 8.28714 8.75229 1.30362
H 6.74414 1.72526 -3.61645
H 8.07926 -3.43366 -0.35847
H 7.38957 -0.27812 5.02684
H 6.30062 5.73773 -0.77434
H 6.79069 4.26807 -3.12742
H 4.48801 4.33531 -1.22130
H 4.70654 2.79108 -2.07095
H 4.46255 4.22498 -3.02176
H 8.86963 4.93026 -2.15780
H 8.98447 5.81364 -0.59203
H 7.21563 7.25824 -2.29258
H 8.39132 6.57091 -3.35569
H 7.60895 0.49573 -5.09331
H 7.43543 -1.21576 -5.29295
H 9.08344 -0.54443 -5.28026
H 8.53412 -3.14827 -5.10940
H 9.82524 -4.37285 -4.58015
H 10.14898 -2.61861 -4.68610
H 8.47891 -3.96418 2.10293
H 6.69892 -2.72455 4.14051
H 6.66077 -5.31076 2.00181
H 5.76982 -3.92546 1.27849
H 5.71237 -4.16846 2.94980
H 8.76059 -4.07252 4.69214
H 8.60039 -2.56758 5.57785
H 10.35292 -3.39373 3.38052
H 10.81346 -2.49920 4.87469
H 10.02664 -1.65976 3.46382
H 7.51924 3.05751 6.53046
H 7.16603 1.30258 6.42254
H 5.85329 2.48818 6.04395
H 6.03007 5.72100 2.06623
H 7.88262 9.60761 1.85361
H 8.36333 8.85064 0.20441
H 9.28592 8.68691 1.71908

