%nproc=24
%mem=175gb
#p cam-b3lyp/Def2SVP td=(nstates=5)

TDDFT excited states in gaussian

0 1
Mg 31.52886 2.84312 2.40427
C 29.29327 0.26875 3.52403
C 28.83414 4.93187 2.30331
C 33.37879 4.99992 0.99240
C 33.76233 0.32169 1.51001
N 29.39163 2.52496 2.87679
C 28.66907 1.52187 3.35226
C 27.21425 1.90285 3.73688
C 27.04302 3.18690 2.78779
C 28.50820 3.60213 2.67165
C 26.53208 2.84433 1.39821
C 27.07753 2.28630 5.25223
C 25.63894 2.36929 5.76732
H 25.36481 1.94590 7.13775
N 31.29233 4.80319 2.20249
C 30.12904 5.48730 2.20815
C 30.49115 6.89842 2.00377
C 31.94873 6.97120 1.71243
C 32.26609 5.56157 1.60151
C 29.51039 8.02256 2.17060
C 32.89713 8.11981 1.54676
O 34.07237 7.95802 1.06150
C 32.37668 9.45332 1.88199
N 33.21921 2.68220 1.20463
C 33.86227 3.77840 0.76559
C 35.19716 3.42063 0.15694
C 35.42448 1.87485 0.49819
C 34.08214 1.57028 1.19872
C 35.31817 3.63154 -1.35212
C 36.74213 1.50240 1.23151
C 36.73197 2.07150 2.63201
N 31.63618 0.69973 2.65418
C 32.64688 -0.16480 2.17970
C 32.22296 -1.54445 2.49479
C 30.97438 -1.38702 3.11508
C 30.63427 -0.00809 3.16373
C 32.93815 -2.73022 2.16528
C 29.86192 -2.07456 3.73023
O 29.62940 -3.24026 4.04774
C 28.66631 -1.04256 3.90875
C 28.13767 -1.18202 5.31004
O 28.84613 -0.87832 6.28598
O 26.81841 -1.44158 5.25950
C 26.24622 -1.57748 6.62549
H 28.02462 5.60466 2.01884
H 34.10337 5.71011 0.58732
H 34.44812 -0.51336 1.35171
H 26.46887 1.15624 3.49038
H 26.46372 3.96545 3.27731
H 26.48058 1.77741 1.23958
H 27.23216 3.29614 0.70771
H 25.57155 3.33551 1.21806
H 27.38571 3.33117 5.38640
H 27.64357 1.61451 5.86780
H 24.92532 1.90933 5.07297
H 25.34200 3.42039 5.79957
H 28.47916 7.65218 2.22336
H 29.54024 8.61250 1.24813
H 29.75403 8.67246 3.01377
H 31.50603 9.66642 1.26635
H 33.22674 10.13152 1.78551
H 32.03184 9.44300 2.92198
H 35.99452 4.00046 0.60540
H 35.45179 1.25658 -0.41111
H 36.15129 4.30292 -1.63358
H 34.37702 4.01889 -1.71918
H 35.43748 2.72144 -1.93751
H 37.59890 1.94920 0.72115
H 36.92002 0.43347 1.28387
H 37.06414 3.10307 2.48162
H 37.42065 1.52453 3.27278
H 35.71295 2.10867 3.03434
H 32.89793 -3.37034 3.03656
H 33.96468 -2.50918 1.88043
H 32.34504 -3.08689 1.31894
H 27.91066 -1.28395 3.16022
H 25.75364 -2.55374 6.66988
H 25.60957 -0.68489 6.77287
H 26.94026 -1.65290 7.45439

