%nproc=24
%mem=175gb
#p cam-b3lyp/Def2SVP td=(nstates=5)

TDDFT excited states in gaussian

0 1
Mg 15.77360 1.41840 1.20526
C 13.84547 -0.13297 3.80423
C 16.34598 3.99077 3.37088
C 17.09544 3.01534 -1.19681
C 14.13471 -0.66113 -1.06085
N 15.12633 1.76839 3.29112
C 14.44742 1.08066 4.19691
C 14.47901 1.69041 5.62406
C 14.78284 3.21645 5.22688
C 15.49524 2.98539 3.89580
C 13.52743 4.03068 4.96168
C 15.62750 1.08698 6.50659
C 15.52666 1.40658 7.99972
H 15.95636 0.39292 8.95905
N 16.99831 2.97994 1.22096
C 17.11703 3.91125 2.19042
C 18.13776 4.85831 1.71568
C 18.49309 4.50193 0.31516
C 17.50607 3.47561 0.04580
C 18.73339 5.92037 2.59356
C 19.53885 5.01076 -0.63019
O 19.51403 4.72440 -1.87927
C 20.53930 5.92982 -0.06813
N 15.48720 1.36071 -0.85313
C 16.22966 2.12198 -1.67603
C 16.04036 1.71232 -3.11711
C 15.19783 0.35380 -3.07045
C 14.95893 0.25637 -1.54768
C 15.32233 2.72582 -4.00799
C 15.80230 -0.87475 -3.80391
C 17.05789 -1.33169 -3.09674
N 14.40236 -0.24639 1.33267
C 13.81946 -0.95539 0.25953
C 12.86814 -1.92342 0.84293
C 12.94724 -1.69277 2.22461
C 13.86689 -0.64054 2.48262
C 12.04238 -2.82257 0.11098
C 12.45397 -2.09295 3.52278
O 11.72238 -2.99233 3.93464
C 12.91922 -1.01519 4.59440
C 13.49032 -1.75103 5.77545
O 14.53261 -2.41954 5.65991
O 12.83829 -1.37030 6.88913
C 13.37639 -2.06481 8.08910
H 16.39745 4.94909 3.88844
H 17.60469 3.45861 -2.05568
H 13.65747 -1.41206 -1.69412
H 13.54314 1.62655 6.16614
H 15.45391 3.68469 5.94227
H 12.63958 3.41603 4.96887
H 13.66861 4.48006 3.98743
H 13.46035 4.86148 5.66993
H 16.56880 1.59866 6.26808
H 15.69675 0.02554 6.36811
H 14.53913 1.79882 8.27151
H 16.21238 2.22666 8.22614
H 18.15772 6.04703 3.51874
H 18.61496 6.87373 2.06730
H 19.79453 5.75604 2.79266
H 20.03679 6.79865 0.35028
H 21.25278 6.11335 -0.87383
H 21.04646 5.42860 0.76385
H 16.99402 1.51823 -3.59246
H 14.20867 0.47159 -3.53683
H 15.91363 3.02389 -4.89432
H 15.07335 3.59127 -3.40838
H 14.34686 2.40975 -4.37371
H 16.09999 -0.60102 -4.81909
H 15.11563 -1.71084 -3.88406
H 17.82561 -0.66577 -3.50201
H 17.27328 -2.37193 -3.33241
H 16.99336 -1.14290 -2.01885
H 12.09005 -3.77507 0.62182
H 12.36789 -2.90869 -0.92362
H 11.07770 -2.31534 0.19691
H 12.04400 -0.42330 4.86500
H 12.53222 -2.56416 8.57461
H 13.90496 -1.28745 8.67225
H 14.04972 -2.89816 7.92602

