%nproc=24
%mem=175gb
#p cam-b3lyp/Def2SVP td=(nstates=5)

TDDFT excited states in gaussian

0 1
Mg 7.88998 0.70806 0.60676
C 8.00017 -2.87836 0.67417
C 6.77320 0.58538 3.82737
C 7.35298 3.83047 0.43470
C 7.90347 0.50461 -2.87234
N 7.48028 -0.98711 1.96720
C 7.61754 -2.30297 1.90379
C 7.40629 -3.03753 3.25484
C 6.48719 -1.94078 3.98371
C 6.96235 -0.69246 3.24304
C 5.00321 -2.12203 3.71112
C 8.75232 -3.26474 4.02851
C 8.66257 -4.24345 5.20148
H 9.80828 -5.10572 5.47773
N 7.64344 2.05010 2.04784
C 7.20309 1.82432 3.30338
C 7.18024 3.13849 3.96413
C 7.48574 4.18054 2.94652
C 7.48541 3.37845 1.73957
C 6.96690 3.30317 5.44088
C 7.72440 5.65705 3.04212
O 7.73691 6.40585 2.00193
C 7.85002 6.21450 4.39673
N 7.44781 1.97739 -0.97932
C 7.31436 3.30166 -0.78849
C 7.27290 4.04098 -2.10457
C 7.65081 2.95723 -3.21824
C 7.76307 1.70341 -2.32341
C 5.93614 4.69120 -2.46050
C 8.83638 3.30098 -4.16107
C 10.12951 3.32033 -3.37823
N 8.12708 -0.86187 -0.85856
C 8.07348 -0.73234 -2.26371
C 8.17437 -2.09285 -2.83051
C 8.25717 -2.92813 -1.70626
C 8.19080 -2.14530 -0.52209
C 8.13285 -2.42261 -4.21458
C 8.37492 -4.29502 -1.25188
O 8.55667 -5.38059 -1.80163
C 8.08649 -4.33474 0.31069
C 9.16528 -5.15651 0.96141
O 10.34580 -4.76538 0.95926
O 8.59667 -6.15368 1.66333
C 9.62596 -6.99013 2.33619
H 6.20476 0.65251 4.75540
H 7.27649 4.91382 0.31647
H 8.01355 0.36525 -3.94990
H 6.87485 -3.97882 3.18188
H 6.72257 -1.86874 5.04238
H 4.81977 -2.88994 2.97437
H 4.65043 -1.16328 3.35422
H 4.46845 -2.31081 4.64639
H 9.01367 -2.34631 4.56972
H 9.52968 -3.57505 3.35765
H 7.73643 -4.83054 5.17851
H 8.59275 -3.66885 6.12829
H 6.60456 2.37553 5.90087
H 6.13994 4.01023 5.56761
H 7.84847 3.69499 5.95271
H 6.94556 5.99977 4.96091
H 8.10605 7.26657 4.25720
H 8.67083 5.70232 4.91108
H 8.00775 4.83640 -2.12462
H 6.81531 2.77568 -3.91020
H 6.01530 5.77931 -2.64442
H 5.23542 4.49069 -1.66092
H 5.42987 4.26328 -3.32408
H 8.71068 4.30342 -4.57757
H 8.93699 2.61563 -4.99603
H 10.13839 4.32331 -2.94114
H 10.98021 3.17063 -4.04000
H 10.10003 2.60083 -2.55174
H 8.90786 -3.15854 -4.38268
H 8.27751 -1.54238 -4.83752
H 7.11594 -2.81677 -4.29075
H 7.09758 -4.77310 0.45025
H 9.45752 -8.02300 2.01604
H 9.52605 -6.77505 3.41670
H 10.65943 -6.84417 2.04451

