%nproc=24
%mem=175gb
#p cam-b3lyp/Def2SVP td=(nstates=5)

TDDFT excited states in gaussian

0 1
Mg 0.00000 0.00000 0.00000
C -0.21700 -2.21800 2.80100
C -1.25500 2.44200 2.02600
C -0.24500 1.85000 -2.56400
C 0.14600 -2.82400 -2.03700
N -0.61700 -0.00900 2.12600
C -0.59400 -0.90800 3.10500
C -0.93600 -0.30900 4.50200
C -1.77300 0.96400 4.03200
C -1.15500 1.16800 2.66000
C -3.26300 0.68500 3.86300
C 0.34500 0.11000 5.29900
C 0.12400 0.39700 6.78700
H 1.16800 0.03300 7.73300
N -0.18500 1.96100 -0.15200
C -0.70300 2.80000 0.77700
C -0.62000 4.15600 0.19300
C -0.18700 4.01500 -1.22500
C -0.21400 2.58300 -1.38000
C -0.88700 5.40600 0.97400
C 0.18100 5.01300 -2.27700
O 0.30300 4.69000 -3.50800
C 0.31000 6.41400 -1.83700
N -0.26500 -0.41300 -2.02900
C -0.27900 0.56900 -2.93700
C -0.19600 0.02400 -4.33200
C 0.12400 -1.53300 -4.18000
C 0.08600 -1.63200 -2.63500
C -1.45100 0.20500 -5.19700
C 1.37300 -2.07000 -4.92300
C 2.62600 -1.49000 -4.30600
N 0.15000 -2.14400 0.30300
C 0.17300 -3.13600 -0.68800
C 0.17300 -4.43800 0.00400
C 0.13300 -4.11100 1.35800
C 0.08300 -2.69500 1.50200
C 0.14900 -5.71500 -0.62300
C 0.09600 -4.62900 2.71600
O 0.20800 -5.74700 3.22100
C -0.25500 -3.42800 3.70100
C 0.71700 -3.48200 4.84800
O 1.93100 -3.25500 4.66900
O 0.03800 -3.55600 6.00300
C 0.94300 -3.58300 7.18300
H -1.85900 3.22000 2.49700
H -0.21800 2.45300 -3.47400
H 0.27600 -3.74700 -2.60500
H -1.55400 -0.94900 5.13200
H -1.58500 1.83100 4.66500
H -3.48400 -0.37700 3.96900
H -3.51100 1.02700 2.85800
H -3.85200 1.30100 4.54300
H 0.66900 1.09600 4.96600
H 1.13000 -0.63900 5.18900
H -0.84400 0.02600 7.12500
H 0.06200 1.47700 6.92100
H -1.34400 5.18600 1.93800
H -1.65100 5.96300 0.43200
H 0.00700 6.02000 1.08400
H -0.63500 6.74400 -1.40500
H 0.66500 6.97000 -2.70400
H 1.04800 6.46600 -1.03600
H 0.60800 0.50100 -4.89100
H -0.69200 -2.15600 -4.54700
H -1.26700 0.74000 -6.12900
H -2.20400 0.71400 -4.59600
H -1.96700 -0.72000 -5.45300
H 1.35600 -1.75900 -5.96700
H 1.45200 -3.15700 -4.90200
H 2.71400 -0.52200 -4.79800
H 3.48700 -2.12100 -4.52900
H 2.49500 -1.30300 -3.24000
H 0.86700 -6.33300 -0.08400
H 0.40400 -5.64200 -1.68000
H -0.89100 -5.99900 -0.46300
H -1.28300 -3.58100 4.02800
H 0.69800 -4.47800 7.75500
H 0.83300 -2.61900 7.68000
H 2.00000 -3.75400 6.97600
Mg 7.89100 0.70950 0.59172
C 7.50866 3.93622 -0.93182
C 7.36415 -0.64454 -2.49431
C 7.77402 -2.14446 1.97325
C 7.25148 2.23580 3.65883
N 7.49897 1.63027 -1.38078
C 7.43717 2.86752 -1.84954
C 7.37109 2.96638 -3.39725
C 6.76028 1.51346 -3.70516
C 7.26473 0.76955 -2.47033
C 5.24096 1.48437 -3.69277
C 8.78884 3.14272 -4.04601
C 8.77497 3.55446 -5.51979
H 9.81957 4.45435 -6.00093
N 8.09721 -1.10398 -0.18759
C 7.86207 -1.47255 -1.46436
C 8.14222 -2.91548 -1.52468
C 8.40291 -3.40089 -0.14224
C 8.07384 -2.21345 0.62052
C 8.22245 -3.67549 -2.81672
C 8.85902 -4.71992 0.40393
O 8.78934 -4.99119 1.65469
C 9.30236 -5.71876 -0.57957
N 7.35344 0.08853 2.50163
C 7.44298 -1.20462 2.85893
C 7.26991 -1.37188 4.34973
C 7.28651 0.10913 4.95300
C 7.38095 0.91631 3.63963
C 5.99532 -2.08834 4.79522
C 8.31992 0.40028 6.07547
C 9.72229 0.34039 5.51409
N 7.63935 2.73571 1.29827
C 7.35318 3.14962 2.61769
C 7.15941 4.61373 2.58232
C 7.32489 4.94962 1.23017
C 7.58223 3.77495 0.47293
C 6.82454 5.43567 3.69515
C 7.32986 6.02944 0.26962
O 7.25634 7.25553 0.34056
C 7.32378 5.40544 -1.19222
C 8.37605 6.11117 -2.00288
O 9.57995 5.99623 -1.71298
O 7.80878 6.62506 -3.10945
C 8.81479 7.32556 -3.95152
H 6.98650 -1.17644 -3.36801
H 7.82987 -3.09012 2.51741
H 7.14586 2.79853 4.58880
H 6.70882 3.73590 -3.77542
H 7.18950 1.08788 -4.60849
H 4.82272 2.42317 -3.36130
H 4.96752 0.68754 -3.01355
H 4.86161 1.18694 -4.67458
H 9.26892 2.15927 -4.13019
H 9.38205 3.83647 -3.48257
H 7.78686 3.90656 -5.84011
H 8.95364 2.66582 -6.13005
H 7.82236 -3.08970 -3.65349
H 7.53883 -4.52694 -2.72983
H 9.22755 -4.04897 -3.02399
H 8.49280 -5.92393 -1.27596
H 9.67383 -6.56140 0.00682
H 10.12228 -5.29106 -1.16730
H 8.09317 -1.93341 4.77403
H 6.32337 0.37182 5.41473
H 6.19162 -2.98177 5.41757
H 5.42837 -2.35618 3.91354
H 5.28752 -1.47163 5.34649
H 8.26303 -0.36744 6.85105
H 8.17221 1.35948 6.56037
H 9.94967 -0.72969 5.53171
H 10.41102 0.90066 6.14321
H 9.74121 0.66420 4.46698
H 7.44611 6.31866 3.62825
H 6.97678 4.91175 4.63647
H 5.76549 5.61630 3.49251
H 6.32451 5.54838 -1.60528
H 8.44884 8.34555 -4.10447
H 8.94145 6.69552 -4.85194
H 9.78925 7.51354 -3.51616

