%nproc=24
%mem=175gb
#p cam-b3lyp/Def2SVP td=(nstates=5)

TDDFT excited states in gaussian

0 1
Mg 7.88949 0.71419 0.60603
C 7.69524 -1.68207 3.27047
C 6.63336 3.01723 2.78612
C 7.62418 2.72934 -1.83041
C 8.03053 -1.97044 -1.61174
N 7.28267 0.56613 2.72785
C 7.31147 -0.38017 3.65415
C 6.98328 0.11380 5.08867
C 6.12999 1.41880 4.70429
C 6.73868 1.71427 3.33503
C 4.64867 1.13577 4.51747
C 8.27213 0.48899 5.90113
C 8.05181 0.68310 7.40298
H 9.10858 0.26717 8.32097
N 7.69678 2.68932 0.58815
C 7.18718 3.46608 1.56704
C 7.24730 4.84523 1.05863
C 7.68127 4.80214 -0.36423
C 7.66380 3.37271 -0.60197
C 6.98731 6.04368 1.92439
C 8.03889 5.87130 -1.35176
O 8.15748 5.61983 -2.60297
C 8.15442 7.23877 -0.82436
N 7.62181 0.43004 -1.43601
C 7.59220 1.47519 -2.28141
C 7.66774 1.01684 -3.71828
C 7.99931 -0.54632 -3.65374
C 7.96858 -0.74853 -2.12287
C 6.40626 1.23518 -4.55338
C 9.24774 -1.03395 -4.43879
C 10.50425 -0.48270 -3.80419
N 8.05466 -1.43362 0.77234
C 8.07062 -2.37212 -0.28267
C 8.08040 -3.71619 0.33038
C 8.04594 -3.46468 1.71025
C 7.99634 -2.06324 1.94051
C 8.06894 -4.95241 -0.37513
C 8.02951 -4.06632 3.02420
O 8.14217 -5.21283 3.45611
C 7.67402 -2.94226 4.09028
C 8.65200 -3.05481 5.22756
O 9.86025 -2.82171 5.04757
O 7.97296 -3.20507 6.37939
C 8.89950 -3.31008 7.53797
H 6.03446 3.75728 3.31765
H 7.64390 3.38273 -2.70572
H 8.17325 -2.85679 -2.23360
H 6.37818 -0.56640 5.67600
H 6.32635 2.23618 5.39327
H 4.43219 0.07860 4.55831
H 4.39278 1.53708 3.54560
H 4.06150 1.70592 5.24307
H 8.58694 1.50350 5.62475
H 9.04792 -0.23413 5.74021
H 7.08140 0.29133 7.73125
H 7.99199 1.75448 7.60931
H 6.52953 5.75821 2.87956
H 6.21808 6.64020 1.42207
H 7.87661 6.66138 2.06673
H 7.21245 7.52966 -0.36553
H 8.50347 7.84635 -1.66156
H 8.90722 7.24424 -0.02819
H 8.46698 1.52417 -4.24453
H 7.18102 -1.15384 -4.06745
H 6.58409 1.83955 -5.46288
H 5.65853 1.70251 -3.92645
H 5.90221 0.32544 -4.87510
H 9.22409 -0.65258 -5.46259
H 9.32509 -2.11439 -4.49930
H 10.57912 0.52000 -4.23557
H 11.36616 -1.09174 -4.06917
H 10.38011 -0.36719 -2.72119
H 8.78574 -5.59747 0.11538
H 8.31278 -4.81261 -1.42621
H 7.02658 -5.24927 -0.23153
H 6.64685 -3.11213 4.41530
H 8.65840 -4.24328 8.05632
H 8.77316 -2.37027 8.10767
H 9.95282 -3.45186 7.32613

