%nproc=24
%mem=175gb
#p cam-b3lyp/Def2SVP td=(nstates=5)

TDDFT excited states in gaussian

0 1
Mg 0.00000 0.00000 0.00000
C -0.21700 -2.21800 2.80100
C -1.25500 2.44200 2.02600
C -0.24500 1.85000 -2.56400
C 0.14600 -2.82400 -2.03700
N -0.61700 -0.00900 2.12600
C -0.59400 -0.90800 3.10500
C -0.93600 -0.30900 4.50200
C -1.77300 0.96400 4.03200
C -1.15500 1.16800 2.66000
C -3.26300 0.68500 3.86300
C 0.34500 0.11000 5.29900
C 0.12400 0.39700 6.78700
H 1.16800 0.03300 7.73300
N -0.18500 1.96100 -0.15200
C -0.70300 2.80000 0.77700
C -0.62000 4.15600 0.19300
C -0.18700 4.01500 -1.22500
C -0.21400 2.58300 -1.38000
C -0.88700 5.40600 0.97400
C 0.18100 5.01300 -2.27700
O 0.30300 4.69000 -3.50800
C 0.31000 6.41400 -1.83700
N -0.26500 -0.41300 -2.02900
C -0.27900 0.56900 -2.93700
C -0.19600 0.02400 -4.33200
C 0.12400 -1.53300 -4.18000
C 0.08600 -1.63200 -2.63500
C -1.45100 0.20500 -5.19700
C 1.37300 -2.07000 -4.92300
C 2.62600 -1.49000 -4.30600
N 0.15000 -2.14400 0.30300
C 0.17300 -3.13600 -0.68800
C 0.17300 -4.43800 0.00400
C 0.13300 -4.11100 1.35800
C 0.08300 -2.69500 1.50200
C 0.14900 -5.71500 -0.62300
C 0.09600 -4.62900 2.71600
O 0.20800 -5.74700 3.22100
C -0.25500 -3.42800 3.70100
C 0.71700 -3.48200 4.84800
O 1.93100 -3.25500 4.66900
O 0.03800 -3.55600 6.00300
C 0.94300 -3.58300 7.18300
H -1.85900 3.22000 2.49700
H -0.21800 2.45300 -3.47400
H 0.27600 -3.74700 -2.60500
H -1.55400 -0.94900 5.13200
H -1.58500 1.83100 4.66500
H -3.48400 -0.37700 3.96900
H -3.51100 1.02700 2.85800
H -3.85200 1.30100 4.54300
H 0.66900 1.09600 4.96600
H 1.13000 -0.63900 5.18900
H -0.84400 0.02600 7.12500
H 0.06200 1.47700 6.92100
H -1.34400 5.18600 1.93800
H -1.65100 5.96300 0.43200
H 0.00700 6.02000 1.08400
H -0.63500 6.74400 -1.40500
H 0.66500 6.97000 -2.70400
H 1.04800 6.46600 -1.03600
H 0.60800 0.50100 -4.89100
H -0.69200 -2.15600 -4.54700
H -1.26700 0.74000 -6.12900
H -2.20400 0.71400 -4.59600
H -1.96700 -0.72000 -5.45300
H 1.35600 -1.75900 -5.96700
H 1.45200 -3.15700 -4.90200
H 2.71400 -0.52200 -4.79800
H 3.48700 -2.12100 -4.52900
H 2.49500 -1.30300 -3.24000
H 0.86700 -6.33300 -0.08400
H 0.40400 -5.64200 -1.68000
H -0.89100 -5.99900 -0.46300
H -1.28300 -3.58100 4.02800
H 0.69800 -4.47800 7.75500
H 0.83300 -2.61900 7.68000
H 2.00000 -3.75400 6.97600
Mg 8.92415 0.80690 0.67664
C 7.88840 -2.01150 -1.28878
C 8.17531 2.76762 -2.01212
C 10.24648 3.24751 2.21362
C 10.62947 -1.43050 2.73373
N 8.13942 0.32387 -1.33412
C 7.72452 -0.77471 -1.94675
C 7.02520 -0.52582 -3.31004
C 7.68968 0.89220 -3.66581
C 7.99209 1.38221 -2.25120
C 9.00341 0.76900 -4.41966
C 5.46660 -0.41086 -3.17013
C 4.69581 -0.47681 -4.49047
H 3.39358 -1.13749 -4.50395
N 8.73550 2.76115 0.38696
C 8.40248 3.38497 -0.76248
C 8.41923 4.82425 -0.45856
C 8.94961 5.00645 0.91992
C 9.35956 3.65059 1.22597
C 7.88613 5.86169 -1.40352
C 9.07961 6.20528 1.80992
O 9.78810 6.17754 2.87768
C 8.42938 7.43964 1.34620
N 10.41644 0.92273 2.11955
C 10.76559 2.10348 2.65977
C 11.65631 1.91039 3.86381
C 11.63605 0.34004 4.16579
C 10.77049 -0.13490 2.97809
C 13.10240 2.37892 3.70350
C 11.22685 -0.09571 5.59944
C 9.76975 0.22683 5.84075
N 9.07501 -1.34141 0.85003
C 9.86612 -2.06983 1.76526
C 9.72562 -3.49947 1.42059
C 8.87401 -3.50199 0.30559
C 8.52564 -2.16676 -0.03396
C 10.37944 -4.58117 2.07526
C 8.19905 -4.32991 -0.66789
O 8.05318 -5.54128 -0.82617
C 7.63221 -3.39418 -1.82093
C 6.20504 -3.79121 -2.08183
O 5.33397 -3.62788 -1.20938
O 6.06302 -4.09357 -3.38520
C 4.66160 -4.48293 -3.69543
H 8.18852 3.44434 -2.86697
H 10.64465 4.04584 2.84418
H 11.05111 -2.19711 3.38733
H 7.26057 -1.25044 -4.08030
H 6.97626 1.55151 -4.15335
H 9.33378 -0.25680 -4.48845
H 9.71860 1.36029 -3.86294
H 8.92024 1.24287 -5.40193
H 5.20973 0.60815 -2.85331
H 5.08902 -1.15293 -2.49383
H 5.32054 -0.84195 -5.31468
H 4.42818 0.54021 -4.78722
H 7.71496 5.44479 -2.40367
H 8.68183 6.60019 -1.54961
H 7.00004 6.36891 -1.01590
H 8.83244 7.71730 0.37517
H 8.55677 8.15945 2.15708
H 7.36243 7.23873 1.19830
H 11.26377 2.43874 4.72396
H 12.62917 -0.11345 4.03203
H 13.40707 3.12266 4.46384
H 13.22178 2.78306 2.70703
H 13.84923 1.58704 3.72265
H 11.79654 0.46669 6.34330
H 11.39433 -1.14962 5.79489
H 9.79503 1.28198 6.12905
H 9.36797 -0.39146 6.64096
H 9.19126 0.15248 4.91260
H 9.64018 -5.36082 2.20228
H 10.80051 -4.27217 3.02972
H 11.15490 -4.81378 1.34054
H 8.26378 -3.53669 -2.69865
H 4.70060 -5.47238 -4.16143
H 4.24931 -3.65575 -4.30333
H 3.99641 -4.66857 -2.86026

