%nproc=24
%mem=175gb
#p cam-b3lyp/Def2SVP td=(nstates=5)

TDDFT excited states in gaussian

0 1
Mg 0.00000 0.00000 0.00000
C -0.21700 -2.21800 2.80100
C -1.25500 2.44200 2.02600
C -0.24500 1.85000 -2.56400
C 0.14600 -2.82400 -2.03700
N -0.61700 -0.00900 2.12600
C -0.59400 -0.90800 3.10500
C -0.93600 -0.30900 4.50200
C -1.77300 0.96400 4.03200
C -1.15500 1.16800 2.66000
C -3.26300 0.68500 3.86300
C 0.34500 0.11000 5.29900
C 0.12400 0.39700 6.78700
H 1.16800 0.03300 7.73300
N -0.18500 1.96100 -0.15200
C -0.70300 2.80000 0.77700
C -0.62000 4.15600 0.19300
C -0.18700 4.01500 -1.22500
C -0.21400 2.58300 -1.38000
C -0.88700 5.40600 0.97400
C 0.18100 5.01300 -2.27700
O 0.30300 4.69000 -3.50800
C 0.31000 6.41400 -1.83700
N -0.26500 -0.41300 -2.02900
C -0.27900 0.56900 -2.93700
C -0.19600 0.02400 -4.33200
C 0.12400 -1.53300 -4.18000
C 0.08600 -1.63200 -2.63500
C -1.45100 0.20500 -5.19700
C 1.37300 -2.07000 -4.92300
C 2.62600 -1.49000 -4.30600
N 0.15000 -2.14400 0.30300
C 0.17300 -3.13600 -0.68800
C 0.17300 -4.43800 0.00400
C 0.13300 -4.11100 1.35800
C 0.08300 -2.69500 1.50200
C 0.14900 -5.71500 -0.62300
C 0.09600 -4.62900 2.71600
O 0.20800 -5.74700 3.22100
C -0.25500 -3.42800 3.70100
C 0.71700 -3.48200 4.84800
O 1.93100 -3.25500 4.66900
O 0.03800 -3.55600 6.00300
C 0.94300 -3.58300 7.18300
H -1.85900 3.22000 2.49700
H -0.21800 2.45300 -3.47400
H 0.27600 -3.74700 -2.60500
H -1.55400 -0.94900 5.13200
H -1.58500 1.83100 4.66500
H -3.48400 -0.37700 3.96900
H -3.51100 1.02700 2.85800
H -3.85200 1.30100 4.54300
H 0.66900 1.09600 4.96600
H 1.13000 -0.63900 5.18900
H -0.84400 0.02600 7.12500
H 0.06200 1.47700 6.92100
H -1.34400 5.18600 1.93800
H -1.65100 5.96300 0.43200
H 0.00700 6.02000 1.08400
H -0.63500 6.74400 -1.40500
H 0.66500 6.97000 -2.70400
H 1.04800 6.46600 -1.03600
H 0.60800 0.50100 -4.89100
H -0.69200 -2.15600 -4.54700
H -1.26700 0.74000 -6.12900
H -2.20400 0.71400 -4.59600
H -1.96700 -0.72000 -5.45300
H 1.35600 -1.75900 -5.96700
H 1.45200 -3.15700 -4.90200
H 2.71400 -0.52200 -4.79800
H 3.48700 -2.12100 -4.52900
H 2.49500 -1.30300 -3.24000
H 0.86700 -6.33300 -0.08400
H 0.40400 -5.64200 -1.68000
H -0.89100 -5.99900 -0.46300
H -1.28300 -3.58100 4.02800
H 0.69800 -4.47800 7.75500
H 0.83300 -2.61900 7.68000
H 2.00000 -3.75400 6.97600
Mg 13.13294 1.17715 1.00501
C 12.07174 3.74448 3.27695
C 14.69268 -0.30988 3.64898
C 14.45645 -0.85157 -1.04439
C 12.48889 3.40585 -1.59572
N 13.28946 1.74025 3.13824
C 12.79366 2.70456 3.89891
C 13.01962 2.50321 5.42140
C 14.30815 1.54754 5.34894
C 14.07162 0.92201 3.97582
C 15.62169 2.31052 5.30636
C 11.80970 1.78449 6.11533
C 11.82503 1.83146 7.64481
H 10.55135 1.94139 8.35059
N 13.96770 -0.59697 1.31201
C 14.53246 -1.04401 2.45327
C 15.01824 -2.40067 2.15721
C 14.84111 -2.65511 0.70167
C 14.42501 -1.34142 0.25315
C 15.50969 -3.33914 3.22078
C 15.02903 -3.87516 -0.14825
O 15.04692 -3.80798 -1.42809
C 15.28471 -5.13637 0.56271
N 13.63216 1.33052 -1.00735
C 14.14773 0.28252 -1.67355
C 14.16856 0.53883 -3.16159
C 13.33313 1.88534 -3.37734
C 13.03653 2.23807 -1.90323
C 15.55304 0.69287 -3.79077
C 12.14514 1.82410 -4.37614
C 11.05347 0.93486 -3.82580
N 12.24163 3.13665 0.82068
C 12.09465 3.89936 -0.35863
C 11.53789 5.20939 0.03670
C 11.42019 5.12565 1.43227
C 11.89057 3.86074 1.87752
C 11.25900 6.29407 -0.84182
C 11.01488 5.82366 2.63111
O 10.45846 6.89552 2.86614
C 11.53661 5.00799 3.89162
C 10.39937 4.88489 4.86837
O 9.38480 4.22711 4.57753
O 10.78589 5.37795 6.05911
C 9.69531 5.26796 7.06427
H 15.40373 -0.73638 4.35707
H 14.80178 -1.55492 -1.80566
H 12.16836 4.11911 -2.35808
H 13.25760 3.40737 5.96880
H 14.27970 0.78666 6.12457
H 15.46641 3.37504 5.21234
H 16.15593 1.92869 4.44622
H 16.23292 2.05764 6.17743
H 11.89932 0.70167 5.95971
H 10.87747 2.17054 5.75128
H 12.54127 2.56874 8.02740
H 12.19986 0.87515 8.01762
H 15.67925 -2.81727 4.17067
H 16.50590 -3.67613 2.91441
H 14.86402 -4.21125 3.34410
H 16.17815 -5.03181 1.17369
H 15.30267 -5.90840 -0.20900
H 14.45313 -5.32487 1.25086
H 13.68286 -0.26607 -3.69948
H 13.96201 2.69590 -3.77400
H 15.74113 -0.02355 -4.61263
H 16.29605 0.58202 -3.01220
H 15.77471 1.68425 -4.18220
H 12.46591 1.37441 -5.31904
H 11.72644 2.79735 -4.60952
H 11.38813 -0.06858 -4.10544
H 10.09652 1.17410 -4.28519
H 11.02418 0.97938 -2.73089
H 10.29742 6.69343 -0.54793
H 11.25613 5.97308 -1.88140
H 12.10459 6.94957 -0.61694
H 12.37945 5.55809 4.31183
H 9.52330 6.27354 7.46039
H 10.02711 4.49395 7.78160
H 8.70609 5.01036 6.70435

