%nproc=24
%mem=175gb
#p cam-b3lyp/Def2SVP td=(nstates=5)

TDDFT excited states in gaussian

0 1
Mg 10.50247 0.94853 0.79236
C 10.55668 -1.81657 -1.49463
C 10.86058 2.99801 -1.91060
C 10.91003 3.36722 2.80514
C 11.29223 -1.31080 3.32562
N 10.67438 0.52654 -1.37204
C 10.62020 -0.55866 -2.12950
C 10.55393 -0.27601 -3.65439
C 11.22756 1.18175 -3.65824
C 10.87277 1.61871 -2.23843
C 12.74168 1.14472 -3.78229
C 9.07987 -0.22904 -4.19008
C 8.94807 -0.26543 -5.71424
H 7.81348 -0.97565 -6.29799
N 10.34768 2.90494 0.49725
C 10.50090 3.56659 -0.66895
C 10.30779 4.99016 -0.35222
C 10.19127 5.13049 1.12475
C 10.50616 3.77936 1.54356
C 10.17060 6.04753 -1.40890
C 9.86465 6.29195 2.01386
O 10.05263 6.24382 3.28082
C 9.40632 7.51946 1.34705
N 11.23136 1.05760 2.73637
C 11.25239 2.22551 3.40230
C 11.55620 2.01333 4.86622
C 11.49590 0.43134 5.09262
C 11.24459 -0.02306 3.63805
C 12.90519 2.54528 5.34958
C 10.54092 -0.08471 6.20365
C 9.10408 0.16888 5.80796
N 10.68320 -1.19781 0.96153
C 11.04916 -1.93519 2.10888
C 11.14725 -3.35218 1.70275
C 10.85169 -3.33775 0.33129
C 10.60779 -2.00328 -0.09203
C 11.51929 -4.43581 2.54742
C 10.70098 -4.14668 -0.85683
O 10.70302 -5.35444 -1.09146
C 10.62732 -3.18274 -2.11849
C 9.47047 -3.62349 -2.97286
O 8.30371 -3.53432 -2.55177
O 9.91259 -3.87185 -4.21915
C 8.79954 -4.30169 -5.10694
H 11.19856 3.71276 -2.66146
H 10.95798 4.15125 3.56441
H 11.43761 -2.08903 4.07789
H 11.13373 -0.95515 -4.26788
H 10.75386 1.83384 -4.38746
H 13.12581 0.13691 -3.72834
H 13.11884 1.73791 -2.95953
H 13.05787 1.65896 -4.69438
H 8.65714 0.76365 -3.98859
H 8.49212 -1.01529 -3.75768
H 9.88285 -0.56794 -6.20170
H 8.77645 0.75265 -6.07211
H 10.46384 5.66995 -2.39625
H 10.91105 6.82267 -1.18364
H 9.17738 6.50134 -1.42423
H 10.16786 7.85650 0.64782
H 9.13730 8.20625 2.15193
H 8.51615 7.28356 0.75327
H 10.80698 2.48629 5.48918
H 12.47501 0.02387 5.38442
H 12.81652 3.26524 6.18497
H 13.41427 2.99855 4.50939
H 13.61540 1.78341 5.66637
H 10.70868 0.46542 7.13283
H 10.66714 -1.13898 6.42632
H 8.94642 1.21005 6.10492
H 8.43501 -0.50039 6.34505
H 8.97985 0.11391 4.72021
H 10.84021 -5.24896 2.32800
H 11.47720 -4.15402 3.59746
H 12.54495 -4.60415 2.20838
H 11.57878 -3.26032 -2.64603
H 9.08719 -5.26671 -5.53554
H 8.63986 -3.46471 -5.81243
H 7.85383 -4.55106 -4.64015

