%nproc=24
%mem=175gb
#p cam-b3lyp/Def2SVP td=(nstates=5)

TDDFT excited states in gaussian

0 1
Mg 0.00000 0.00000 0.00000
C -0.21700 -2.21800 2.80100
C -1.25500 2.44200 2.02600
C -0.24500 1.85000 -2.56400
C 0.14600 -2.82400 -2.03700
N -0.61700 -0.00900 2.12600
C -0.59400 -0.90800 3.10500
C -0.93600 -0.30900 4.50200
C -1.77300 0.96400 4.03200
C -1.15500 1.16800 2.66000
C -3.26300 0.68500 3.86300
C 0.34500 0.11000 5.29900
C 0.12400 0.39700 6.78700
H 1.16800 0.03300 7.73300
N -0.18500 1.96100 -0.15200
C -0.70300 2.80000 0.77700
C -0.62000 4.15600 0.19300
C -0.18700 4.01500 -1.22500
C -0.21400 2.58300 -1.38000
C -0.88700 5.40600 0.97400
C 0.18100 5.01300 -2.27700
O 0.30300 4.69000 -3.50800
C 0.31000 6.41400 -1.83700
N -0.26500 -0.41300 -2.02900
C -0.27900 0.56900 -2.93700
C -0.19600 0.02400 -4.33200
C 0.12400 -1.53300 -4.18000
C 0.08600 -1.63200 -2.63500
C -1.45100 0.20500 -5.19700
C 1.37300 -2.07000 -4.92300
C 2.62600 -1.49000 -4.30600
N 0.15000 -2.14400 0.30300
C 0.17300 -3.13600 -0.68800
C 0.17300 -4.43800 0.00400
C 0.13300 -4.11100 1.35800
C 0.08300 -2.69500 1.50200
C 0.14900 -5.71500 -0.62300
C 0.09600 -4.62900 2.71600
O 0.20800 -5.74700 3.22100
C -0.25500 -3.42800 3.70100
C 0.71700 -3.48200 4.84800
O 1.93100 -3.25500 4.66900
O 0.03800 -3.55600 6.00300
C 0.94300 -3.58300 7.18300
H -1.85900 3.22000 2.49700
H -0.21800 2.45300 -3.47400
H 0.27600 -3.74700 -2.60500
H -1.55400 -0.94900 5.13200
H -1.58500 1.83100 4.66500
H -3.48400 -0.37700 3.96900
H -3.51100 1.02700 2.85800
H -3.85200 1.30100 4.54300
H 0.66900 1.09600 4.96600
H 1.13000 -0.63900 5.18900
H -0.84400 0.02600 7.12500
H 0.06200 1.47700 6.92100
H -1.34400 5.18600 1.93800
H -1.65100 5.96300 0.43200
H 0.00700 6.02000 1.08400
H -0.63500 6.74400 -1.40500
H 0.66500 6.97000 -2.70400
H 1.04800 6.46600 -1.03600
H 0.60800 0.50100 -4.89100
H -0.69200 -2.15600 -4.54700
H -1.26700 0.74000 -6.12900
H -2.20400 0.71400 -4.59600
H -1.96700 -0.72000 -5.45300
H 1.35600 -1.75900 -5.96700
H 1.45200 -3.15700 -4.90200
H 2.71400 -0.52200 -4.79800
H 3.48700 -2.12100 -4.52900
H 2.49500 -1.30300 -3.24000
H 0.86700 -6.33300 -0.08400
H 0.40400 -5.64200 -1.68000
H -0.89100 -5.99900 -0.46300
H -1.28300 -3.58100 4.02800
H 0.69800 -4.47800 7.75500
H 0.83300 -2.61900 7.68000
H 2.00000 -3.75400 6.97600
Mg 15.76969 1.42224 1.18804
C 18.43330 -0.93130 0.69297
C 18.09566 3.89596 0.86372
C 13.53756 3.49963 2.06521
C 13.91755 -1.17869 2.58462
N 17.95100 1.36405 0.82641
C 18.84428 0.41428 0.59328
C 20.23858 0.93647 0.15418
C 20.15965 2.40480 0.79968
C 18.64359 2.58982 0.80153
C 20.64898 2.45725 2.23743
C 20.38790 1.00233 -1.40639
C 21.81930 1.20691 -1.90738
H 22.22344 0.54956 -3.14715
N 15.68602 3.39152 0.95674
C 16.72664 4.23931 0.81658
C 16.13832 5.58265 0.70044
C 14.67480 5.47686 0.94865
C 14.57712 4.09154 1.36271
C 16.93788 6.78962 0.30374
C 13.55118 6.46319 0.84449
O 12.39338 6.21942 1.33733
C 13.87215 7.76023 0.23117
N 14.06849 1.24857 2.37044
C 13.24084 2.29316 2.54864
C 11.95017 1.86110 3.20278
C 11.98488 0.26224 3.20699
C 13.39117 0.03807 2.60910
C 11.72356 2.36872 4.62663
C 10.77953 -0.46959 2.55566
C 10.76928 -0.22100 1.06452
N 16.01190 -0.71274 1.41450
C 15.12701 -1.60852 2.05374
C 15.77681 -2.93524 2.05583
C 17.01428 -2.71269 1.43324
C 17.13615 -1.33983 1.08698
C 15.24088 -4.12313 2.62839
C 18.24961 -3.32487 0.99976
O 18.67720 -4.47743 0.94977
C 19.27610 -2.17397 0.61487
C 19.88833 -2.52294 -0.71400
O 19.18991 -2.55622 -1.74245
O 21.22786 -2.54613 -0.58954
C 21.88076 -2.87695 -1.88418
H 18.77479 4.73734 1.00419
H 12.69163 4.15192 2.29411
H 13.36409 -2.06088 2.91341
H 21.07868 0.39257 0.56912
H 20.63320 3.14398 0.15880
H 20.85913 1.47251 2.62767
H 19.85366 2.92613 2.80194
H 21.51067 3.12605 2.31820
H 19.92682 1.92910 -1.77141
H 19.96506 0.13058 -1.86671
H 22.56114 1.03006 -1.11913
H 21.94914 2.26059 -2.16609
H 18.01573 6.59040 0.34790
H 16.77064 7.55102 1.07327
H 16.63721 7.19427 -0.66503
H 14.66733 8.24019 0.79667
H 12.92264 8.29486 0.16439
H 14.26508 7.58318 -0.77624
H 11.09486 2.19252 2.62684
H 12.01008 -0.14207 4.22961
H 10.78272 2.93933 4.74201
H 12.57319 2.97457 4.91229
H 11.71964 1.59876 5.39627
H 9.83929 -0.06988 2.94341
H 10.77409 -1.53913 2.73739
H 10.27261 0.75019 0.97966
H 10.20715 -0.99804 0.55048
H 11.78843 -0.10495 0.67786
H 15.42368 -4.92014 1.91997
H 14.17964 -4.01705 2.84354
H 15.84018 -4.18758 3.54050
H 20.02249 -2.12185 1.40844
H 22.52177 -3.74586 -1.70589
H 22.37618 -1.94505 -2.21564
H 21.24872 -3.24129 -2.68557

