%nproc=24
%mem=175gb
#p cam-b3lyp/Def2SVP td=(nstates=5)

TDDFT excited states in gaussian

0 1
Mg 0.00000 0.00000 0.00000
C -0.21700 -2.21800 2.80100
C -1.25500 2.44200 2.02600
C -0.24500 1.85000 -2.56400
C 0.14600 -2.82400 -2.03700
N -0.61700 -0.00900 2.12600
C -0.59400 -0.90800 3.10500
C -0.93600 -0.30900 4.50200
C -1.77300 0.96400 4.03200
C -1.15500 1.16800 2.66000
C -3.26300 0.68500 3.86300
C 0.34500 0.11000 5.29900
C 0.12400 0.39700 6.78700
H 1.16800 0.03300 7.73300
N -0.18500 1.96100 -0.15200
C -0.70300 2.80000 0.77700
C -0.62000 4.15600 0.19300
C -0.18700 4.01500 -1.22500
C -0.21400 2.58300 -1.38000
C -0.88700 5.40600 0.97400
C 0.18100 5.01300 -2.27700
O 0.30300 4.69000 -3.50800
C 0.31000 6.41400 -1.83700
N -0.26500 -0.41300 -2.02900
C -0.27900 0.56900 -2.93700
C -0.19600 0.02400 -4.33200
C 0.12400 -1.53300 -4.18000
C 0.08600 -1.63200 -2.63500
C -1.45100 0.20500 -5.19700
C 1.37300 -2.07000 -4.92300
C 2.62600 -1.49000 -4.30600
N 0.15000 -2.14400 0.30300
C 0.17300 -3.13600 -0.68800
C 0.17300 -4.43800 0.00400
C 0.13300 -4.11100 1.35800
C 0.08300 -2.69500 1.50200
C 0.14900 -5.71500 -0.62300
C 0.09600 -4.62900 2.71600
O 0.20800 -5.74700 3.22100
C -0.25500 -3.42800 3.70100
C 0.71700 -3.48200 4.84800
O 1.93100 -3.25500 4.66900
O 0.03800 -3.55600 6.00300
C 0.94300 -3.58300 7.18300
H -1.85900 3.22000 2.49700
H -0.21800 2.45300 -3.47400
H 0.27600 -3.74700 -2.60500
H -1.55400 -0.94900 5.13200
H -1.58500 1.83100 4.66500
H -3.48400 -0.37700 3.96900
H -3.51100 1.02700 2.85800
H -3.85200 1.30100 4.54300
H 0.66900 1.09600 4.96600
H 1.13000 -0.63900 5.18900
H -0.84400 0.02600 7.12500
H 0.06200 1.47700 6.92100
H -1.34400 5.18600 1.93800
H -1.65100 5.96300 0.43200
H 0.00700 6.02000 1.08400
H -0.63500 6.74400 -1.40500
H 0.66500 6.97000 -2.70400
H 1.04800 6.46600 -1.03600
H 0.60800 0.50100 -4.89100
H -0.69200 -2.15600 -4.54700
H -1.26700 0.74000 -6.12900
H -2.20400 0.71400 -4.59600
H -1.96700 -0.72000 -5.45300
H 1.35600 -1.75900 -5.96700
H 1.45200 -3.15700 -4.90200
H 2.71400 -0.52200 -4.79800
H 3.48700 -2.12100 -4.52900
H 2.49500 -1.30300 -3.24000
H 0.86700 -6.33300 -0.08400
H 0.40400 -5.64200 -1.68000
H -0.89100 -5.99900 -0.46300
H -1.28300 -3.58100 4.02800
H 0.69800 -4.47800 7.75500
H 0.83300 -2.61900 7.68000
H 2.00000 -3.75400 6.97600
Mg 13.13908 1.19150 1.00414
C 14.84066 -0.10459 3.88578
C 10.54579 1.97927 3.07508
C 11.43671 1.92713 -1.57039
C 15.31659 -0.69427 -0.95750
N 12.84929 0.92301 3.18041
C 13.58948 0.47470 4.18315
C 12.98789 0.73029 5.59109
C 11.44157 0.84813 5.17410
C 11.61276 1.31334 3.72947
C 10.71773 -0.48801 5.16302
C 13.51295 2.06251 6.23260
C 13.21066 2.22075 7.72435
H 14.19686 2.89136 8.56706
N 11.49395 2.28647 0.82207
C 10.56256 2.51962 1.77045
C 9.54190 3.36554 1.13261
C 9.86322 3.47653 -0.31623
C 10.95592 2.53001 -0.41717
C 8.44535 4.03985 1.90483
C 9.27495 4.28932 -1.42957
O 9.55460 4.05127 -2.65755
C 8.29008 5.31117 -1.04570
N 13.20439 0.52997 -0.96575
C 12.38681 1.05097 -1.89745
C 12.80004 0.62436 -3.28584
C 14.21568 -0.09849 -3.10968
C 14.33941 -0.04113 -1.57124
C 11.83508 -0.31596 -4.00766
C 15.39321 0.44173 -3.96657
C 15.76341 1.83596 -3.51440
N 14.89858 -0.01316 1.35203
C 15.64085 -0.73594 0.39250
C 16.67813 -1.49208 1.12376
C 16.45097 -1.17218 2.47082
C 15.33719 -0.29559 2.57364
C 17.62957 -2.37589 0.54088
C 16.89350 -1.38512 3.83006
O 17.84550 -1.96277 4.35327
C 15.79184 -0.80344 4.81717
C 16.49218 0.02796 5.85679
O 17.08358 1.07398 5.53634
O 16.16604 -0.42910 7.07953
C 16.82765 0.37063 8.14468
H 9.58947 2.06015 3.59259
H 10.95279 2.23489 -2.50023
H 16.09584 -1.22836 -1.50541
H 13.12198 -0.08101 6.29649
H 10.93091 1.60709 5.76110
H 11.39444 -1.31415 5.32332
H 10.25337 -0.56293 4.18844
H 9.89828 -0.47882 5.88741
H 12.93369 2.90489 5.83311
H 14.56583 2.17794 6.06302
H 12.89185 1.27672 8.18273
H 12.34498 2.87828 7.83515
H 8.36599 3.63996 2.92326
H 7.49969 3.75941 1.42846
H 8.53449 5.12828 1.89977
H 7.46209 4.83685 -0.52426
H 8.05093 5.84697 -1.96635
H 8.75884 5.99840 -0.33253
H 12.92237 1.48344 -3.93401
H 14.16617 -1.16315 -3.38148
H 11.48993 0.07710 -4.98257
H 10.99342 -0.50774 -3.35546
H 12.21794 -1.31836 -4.19157
H 15.09257 0.52469 -5.01389
H 16.27583 -0.18827 -3.93381
H 15.04171 2.46640 -4.04240
H 16.78407 2.07496 -3.80624
H 15.58641 1.96121 -2.43986
H 18.57936 -2.16773 1.01529
H 17.68575 -2.24439 -0.53770
H 17.19328 -3.34024 0.81466
H 15.26585 -1.65146 5.25736
H 17.38918 -0.33125 8.76896
H 16.01804 0.94382 8.63432
H 17.60960 1.05763 7.84297

