%nproc=24
%mem=175gb
#p cam-b3lyp/Def2SVP td=(nstates=5)

TDDFT excited states in gaussian

0 1
Mg 0.00000 0.00000 0.00000
C -0.21700 -2.21800 2.80100
C -1.25500 2.44200 2.02600
C -0.24500 1.85000 -2.56400
C 0.14600 -2.82400 -2.03700
N -0.61700 -0.00900 2.12600
C -0.59400 -0.90800 3.10500
C -0.93600 -0.30900 4.50200
C -1.77300 0.96400 4.03200
C -1.15500 1.16800 2.66000
C -3.26300 0.68500 3.86300
C 0.34500 0.11000 5.29900
C 0.12400 0.39700 6.78700
H 1.16800 0.03300 7.73300
N -0.18500 1.96100 -0.15200
C -0.70300 2.80000 0.77700
C -0.62000 4.15600 0.19300
C -0.18700 4.01500 -1.22500
C -0.21400 2.58300 -1.38000
C -0.88700 5.40600 0.97400
C 0.18100 5.01300 -2.27700
O 0.30300 4.69000 -3.50800
C 0.31000 6.41400 -1.83700
N -0.26500 -0.41300 -2.02900
C -0.27900 0.56900 -2.93700
C -0.19600 0.02400 -4.33200
C 0.12400 -1.53300 -4.18000
C 0.08600 -1.63200 -2.63500
C -1.45100 0.20500 -5.19700
C 1.37300 -2.07000 -4.92300
C 2.62600 -1.49000 -4.30600
N 0.15000 -2.14400 0.30300
C 0.17300 -3.13600 -0.68800
C 0.17300 -4.43800 0.00400
C 0.13300 -4.11100 1.35800
C 0.08300 -2.69500 1.50200
C 0.14900 -5.71500 -0.62300
C 0.09600 -4.62900 2.71600
O 0.20800 -5.74700 3.22100
C -0.25500 -3.42800 3.70100
C 0.71700 -3.48200 4.84800
O 1.93100 -3.25500 4.66900
O 0.03800 -3.55600 6.00300
C 0.94300 -3.58300 7.18300
H -1.85900 3.22000 2.49700
H -0.21800 2.45300 -3.47400
H 0.27600 -3.74700 -2.60500
H -1.55400 -0.94900 5.13200
H -1.58500 1.83100 4.66500
H -3.48400 -0.37700 3.96900
H -3.51100 1.02700 2.85800
H -3.85200 1.30100 4.54300
H 0.66900 1.09600 4.96600
H 1.13000 -0.63900 5.18900
H -0.84400 0.02600 7.12500
H 0.06200 1.47700 6.92100
H -1.34400 5.18600 1.93800
H -1.65100 5.96300 0.43200
H 0.00700 6.02000 1.08400
H -0.63500 6.74400 -1.40500
H 0.66500 6.97000 -2.70400
H 1.04800 6.46600 -1.03600
H 0.60800 0.50100 -4.89100
H -0.69200 -2.15600 -4.54700
H -1.26700 0.74000 -6.12900
H -2.20400 0.71400 -4.59600
H -1.96700 -0.72000 -5.45300
H 1.35600 -1.75900 -5.96700
H 1.45200 -3.15700 -4.90200
H 2.71400 -0.52200 -4.79800
H 3.48700 -2.12100 -4.52900
H 2.49500 -1.30300 -3.24000
H 0.86700 -6.33300 -0.08400
H 0.40400 -5.64200 -1.68000
H -0.89100 -5.99900 -0.46300
H -1.28300 -3.58100 4.02800
H 0.69800 -4.47800 7.75500
H 0.83300 -2.61900 7.68000
H 2.00000 -3.75400 6.97600
Mg 31.54006 2.83933 2.40279
C 29.98147 0.99993 5.06107
C 31.65523 5.51117 4.52000
C 32.49799 4.61324 -0.04732
C 30.28326 0.44970 0.19920
N 30.87358 3.09843 4.49586
C 30.35122 2.31164 5.42454
C 30.29160 2.94157 6.84201
C 30.29667 4.49027 6.41731
C 31.01740 4.37349 5.07583
C 28.90640 5.04979 6.16546
C 31.54761 2.57990 7.71013
C 31.41355 2.90119 9.20029
H 32.04200 2.00317 10.16521
N 32.44973 4.60288 2.37216
C 32.40762 5.55688 3.32578
C 33.22418 6.67004 2.81760
C 33.61662 6.36200 1.41553
C 32.83560 5.16419 1.18029
C 33.62432 7.84028 3.66840
C 34.53221 7.04119 0.44259
O 34.54071 6.73328 -0.80158
C 35.35149 8.14133 0.97169
N 31.23518 2.69267 0.35148
C 31.80753 3.56504 -0.49663
C 31.67445 3.10181 -1.92774
C 31.10301 1.61042 -1.84519
C 30.91219 1.49678 -0.31677
C 30.76401 3.94679 -2.81853
C 31.91512 0.50430 -2.57296
C 33.24586 0.30350 -1.88433
N 30.50828 0.94941 2.58085
C 30.05105 0.12486 1.52959
C 29.30841 -0.99397 2.14533
C 29.36590 -0.72826 3.52177
C 30.07571 0.48216 3.74662
C 28.65411 -2.04480 1.44265
C 28.97839 -1.19090 4.83497
O 28.43577 -2.20413 5.27391
C 29.25078 -0.02629 5.88181
C 29.96963 -0.62102 7.06166
O 31.11686 -1.08412 6.93504
O 29.27644 -0.34977 8.18250
C 29.95543 -0.90977 9.38132
H 31.53443 6.47111 5.02281
H 32.90045 5.12894 -0.92228
H 29.94504 -0.38846 -0.41381
H 29.39359 2.71288 7.40332
H 30.87972 5.08859 7.11259
H 28.15005 4.27975 6.19890
H 28.94432 5.50043 5.18233
H 28.69632 5.86562 6.86304
H 32.37191 3.25476 7.44585
H 31.81268 1.54801 7.58538
H 30.37460 3.10599 9.48595
H 31.93670 3.83919 9.40147
H 33.05069 7.87302 4.60289
H 33.32012 8.74508 3.13112
H 34.70062 7.88142 3.84880
H 34.70179 8.90774 1.38759
H 36.00420 8.44119 0.14953
H 35.95763 7.75887 1.80050
H 32.63950 3.08168 -2.41904
H 30.10166 1.53236 -2.29356
H 31.27386 4.33481 -3.72051
H 30.36697 4.76063 -2.22644
H 29.85929 3.44699 -3.16039
H 32.13906 0.81107 -3.59761
H 31.39649 -0.44702 -2.62767
H 33.86793 1.09434 -2.31409
H 33.64884 -0.68188 -2.10945
H 33.16508 0.49581 -0.80816
H 28.88840 -2.96231 1.96590
H 28.97264 -2.08657 0.40315
H 27.61290 -1.72606 1.54043
H 28.28461 0.39563 6.16123
H 29.22834 -1.54994 9.89044
H 30.33826 -0.03690 9.94284
H 30.77049 -1.60479 9.21679

