%nproc=24
%mem=175gb
#p cam-b3lyp/Def2SVP td=(nstates=5)

TDDFT excited states in gaussian

0 1
Mg 31.53154 2.84752 2.40127
C 33.49429 1.94456 5.26682
C 28.87148 3.17132 4.51168
C 29.67842 3.20531 -0.14929
C 33.99136 1.36932 0.42392
N 31.33382 2.56784 4.58644
C 32.16174 2.28407 5.58061
C 31.54650 2.44708 6.99640
C 29.99881 2.26544 6.60840
C 30.05535 2.72896 5.15423
C 29.53876 0.81727 6.63057
C 31.82263 3.86522 7.60846
C 31.52101 3.99024 9.10350
H 32.37767 4.84866 9.91698
N 29.70720 3.61113 2.23625
C 28.76460 3.68214 3.19944
C 27.59267 4.31025 2.56997
C 27.86312 4.45397 1.11363
C 29.11232 3.72755 1.00455
C 26.40207 4.78043 3.35407
C 27.11408 5.12225 0.00073
O 27.41288 4.91926 -1.22905
C 25.96137 5.94786 0.38946
N 31.68695 2.17535 0.44005
C 30.77058 2.51726 -0.48260
C 31.23328 2.15132 -1.87270
C 32.76225 1.71001 -1.71431
C 32.89874 1.81667 -0.17958
C 30.45018 1.03412 -2.56191
C 33.80283 2.44630 -2.60186
C 33.91206 3.89298 -2.17691
N 33.49158 2.00055 2.73138
C 34.34023 1.41301 1.76771
C 35.51318 0.87784 2.48898
C 35.25256 1.17316 3.83560
C 33.99583 1.82698 3.94796
C 36.60380 0.17802 1.90000
C 35.74990 1.07099 5.18871
O 36.80210 0.69146 5.70114
C 34.57528 1.45304 6.18904
C 35.12429 2.41923 7.20274
O 35.50322 3.55179 6.85588
O 34.91033 1.93075 8.43804
C 35.42767 2.85902 9.47847
H 27.92580 3.08051 5.04677
H 29.12981 3.40040 -1.07365
H 34.84778 0.98128 -0.13164
H 31.84239 1.68789 7.71044
H 29.36457 2.92538 7.19457
H 30.36119 0.13566 6.78916
H 29.08048 0.63941 5.66651
H 28.74441 0.68538 7.37080
H 31.08884 4.57685 7.20860
H 32.83210 4.17306 7.41650
H 31.39293 3.01140 9.58142
H 30.54921 4.47559 9.22205
H 26.41630 4.39078 4.37943
H 25.51807 4.31926 2.90049
H 26.28506 5.86601 3.33182
H 25.24606 5.33593 0.93382
H 25.61045 6.41299 -0.53379
H 26.30456 6.72327 1.08341
H 31.18119 3.00653 -2.53527
H 32.90907 0.65033 -1.96996
H 30.02107 1.33823 -3.53528
H 29.67057 0.69942 -1.89056
H 31.01138 0.11823 -2.73913
H 33.47447 2.45293 -3.64412
H 34.78850 1.99369 -2.57763
H 33.07605 4.36746 -2.69943
H 34.86463 4.31398 -2.49221
H 33.73270 4.00173 -1.10096
H 37.50539 0.56895 2.35255
H 36.61621 0.29868 0.81877
H 36.36108 -0.84606 2.19598
H 34.22539 0.52931 6.65152
H 36.12143 2.28603 10.10142
H 34.53313 3.27874 9.97583
H 36.06149 3.67506 9.15166

