%nproc=24
%mem=175gb
#p cam-b3lyp/Def2SVP td=(nstates=5)

TDDFT excited states in gaussian

0 1
Mg 0.00000 0.00000 0.00000
C -0.21700 -2.21800 2.80100
C -1.25500 2.44200 2.02600
C -0.24500 1.85000 -2.56400
C 0.14600 -2.82400 -2.03700
N -0.61700 -0.00900 2.12600
C -0.59400 -0.90800 3.10500
C -0.93600 -0.30900 4.50200
C -1.77300 0.96400 4.03200
C -1.15500 1.16800 2.66000
C -3.26300 0.68500 3.86300
C 0.34500 0.11000 5.29900
C 0.12400 0.39700 6.78700
H 1.16800 0.03300 7.73300
N -0.18500 1.96100 -0.15200
C -0.70300 2.80000 0.77700
C -0.62000 4.15600 0.19300
C -0.18700 4.01500 -1.22500
C -0.21400 2.58300 -1.38000
C -0.88700 5.40600 0.97400
C 0.18100 5.01300 -2.27700
O 0.30300 4.69000 -3.50800
C 0.31000 6.41400 -1.83700
N -0.26500 -0.41300 -2.02900
C -0.27900 0.56900 -2.93700
C -0.19600 0.02400 -4.33200
C 0.12400 -1.53300 -4.18000
C 0.08600 -1.63200 -2.63500
C -1.45100 0.20500 -5.19700
C 1.37300 -2.07000 -4.92300
C 2.62600 -1.49000 -4.30600
N 0.15000 -2.14400 0.30300
C 0.17300 -3.13600 -0.68800
C 0.17300 -4.43800 0.00400
C 0.13300 -4.11100 1.35800
C 0.08300 -2.69500 1.50200
C 0.14900 -5.71500 -0.62300
C 0.09600 -4.62900 2.71600
O 0.20800 -5.74700 3.22100
C -0.25500 -3.42800 3.70100
C 0.71700 -3.48200 4.84800
O 1.93100 -3.25500 4.66900
O 0.03800 -3.55600 6.00300
C 0.94300 -3.58300 7.18300
H -1.85900 3.22000 2.49700
H -0.21800 2.45300 -3.47400
H 0.27600 -3.74700 -2.60500
H -1.55400 -0.94900 5.13200
H -1.58500 1.83100 4.66500
H -3.48400 -0.37700 3.96900
H -3.51100 1.02700 2.85800
H -3.85200 1.30100 4.54300
H 0.66900 1.09600 4.96600
H 1.13000 -0.63900 5.18900
H -0.84400 0.02600 7.12500
H 0.06200 1.47700 6.92100
H -1.34400 5.18600 1.93800
H -1.65100 5.96300 0.43200
H 0.00700 6.02000 1.08400
H -0.63500 6.74400 -1.40500
H 0.66500 6.97000 -2.70400
H 1.04800 6.46600 -1.03600
H 0.60800 0.50100 -4.89100
H -0.69200 -2.15600 -4.54700
H -1.26700 0.74000 -6.12900
H -2.20400 0.71400 -4.59600
H -1.96700 -0.72000 -5.45300
H 1.35600 -1.75900 -5.96700
H 1.45200 -3.15700 -4.90200
H 2.71400 -0.52200 -4.79800
H 3.48700 -2.12100 -4.52900
H 2.49500 -1.30300 -3.24000
H 0.86700 -6.33300 -0.08400
H 0.40400 -5.64200 -1.68000
H -0.89100 -5.99900 -0.46300
H -1.28300 -3.58100 4.02800
H 0.69800 -4.47800 7.75500
H 0.83300 -2.61900 7.68000
H 2.00000 -3.75400 6.97600
Mg 31.53370 2.83159 2.40301
C 28.97794 3.87398 4.69660
C 33.78688 3.35065 4.91066
C 33.84912 2.35417 0.28680
C 29.28906 3.48921 -0.18056
N 31.29165 3.52309 4.48999
C 30.26605 3.83077 5.26962
C 30.63180 4.02946 6.76505
C 32.18296 4.40430 6.58547
C 32.45609 3.68830 5.26433
C 32.42316 5.89094 6.38160
C 30.45170 2.71583 7.60407
C 30.49250 2.91115 9.12129
H 29.63220 2.07517 9.95406
N 33.44674 2.37776 2.67298
C 34.20006 2.64214 3.76104
C 35.54297 2.12475 3.45599
C 35.56331 1.68126 2.03556
C 34.26492 2.14998 1.59446
C 36.62622 2.01354 4.48926
C 36.58766 0.96640 1.20738
O 36.49068 0.89402 -0.06862
C 37.75550 0.43434 1.92471
N 31.64260 3.10927 0.34549
C 32.74954 2.77320 -0.33983
C 32.49909 2.80205 -1.82873
C 30.92009 2.99344 -1.99516
C 30.52467 3.13785 -0.50917
C 33.22894 3.89803 -2.60497
C 30.17122 1.94326 -2.86061
C 30.19145 0.59776 -2.17170
N 29.44700 3.37191 2.25539
C 28.71258 3.62418 1.07596
C 27.36514 4.06757 1.48856
C 27.41681 4.06455 2.89064
C 28.71173 3.66806 3.32129
C 26.31164 4.45306 0.61240
C 26.67361 4.31684 4.10419
O 25.50336 4.59336 4.36455
C 27.68981 4.32650 5.32633
C 27.10791 3.47465 6.42099
O 26.96102 2.25044 6.25874
O 27.02409 4.20336 7.54897
C 26.46286 3.39845 8.66655
H 34.59787 3.69666 5.55211
H 34.57775 2.09651 -0.48533
H 28.50133 3.61898 -0.92577
H 30.10789 4.84019 7.25699
H 32.78711 3.97809 7.38216
H 31.49808 6.43731 6.27275
H 33.01859 5.97201 5.48164
H 33.04396 6.28688 7.19040
H 31.33835 2.08240 7.47228
H 29.54708 2.20917 7.32916
H 30.39311 3.96624 9.40388
H 31.48526 2.62976 9.48082
H 36.37214 2.56993 5.39991
H 37.50390 2.53296 4.08958
H 36.89677 0.97794 4.70609
H 38.26730 1.24714 2.43450
H 38.32946 -0.11894 1.17884
H 37.40495 -0.25360 2.70219
H 32.78987 1.86524 -2.28802
H 30.67443 3.94965 -2.48008
H 33.86544 3.50542 -3.42032
H 33.81935 4.47576 -1.90627
H 32.58594 4.65717 -3.04706
H 30.68028 1.80931 -3.81825
H 29.14374 2.21577 -3.07743
H 31.16644 0.19008 -2.45503
H 29.38042 -0.03053 -2.53439
H 30.18674 0.71361 -1.08166
H 25.40714 3.99848 0.99416
H 26.51207 4.14283 -0.41100
H 26.35039 5.53963 0.72701
H 27.81687 5.36378 5.63854
H 25.59432 3.94391 9.04840
H 27.30268 3.23428 9.36761
H 26.01973 2.44044 8.42100

