%nproc=24
%mem=175gb
#p cam-b3lyp/Def2SVP td=(nstates=5)

TDDFT excited states in gaussian

0 1
Mg 0.00000 0.00000 0.00000
C -0.21700 -2.21800 2.80100
C -1.25500 2.44200 2.02600
C -0.24500 1.85000 -2.56400
C 0.14600 -2.82400 -2.03700
N -0.61700 -0.00900 2.12600
C -0.59400 -0.90800 3.10500
C -0.93600 -0.30900 4.50200
C -1.77300 0.96400 4.03200
C -1.15500 1.16800 2.66000
C -3.26300 0.68500 3.86300
C 0.34500 0.11000 5.29900
C 0.12400 0.39700 6.78700
H 1.16800 0.03300 7.73300
N -0.18500 1.96100 -0.15200
C -0.70300 2.80000 0.77700
C -0.62000 4.15600 0.19300
C -0.18700 4.01500 -1.22500
C -0.21400 2.58300 -1.38000
C -0.88700 5.40600 0.97400
C 0.18100 5.01300 -2.27700
O 0.30300 4.69000 -3.50800
C 0.31000 6.41400 -1.83700
N -0.26500 -0.41300 -2.02900
C -0.27900 0.56900 -2.93700
C -0.19600 0.02400 -4.33200
C 0.12400 -1.53300 -4.18000
C 0.08600 -1.63200 -2.63500
C -1.45100 0.20500 -5.19700
C 1.37300 -2.07000 -4.92300
C 2.62600 -1.49000 -4.30600
N 0.15000 -2.14400 0.30300
C 0.17300 -3.13600 -0.68800
C 0.17300 -4.43800 0.00400
C 0.13300 -4.11100 1.35800
C 0.08300 -2.69500 1.50200
C 0.14900 -5.71500 -0.62300
C 0.09600 -4.62900 2.71600
O 0.20800 -5.74700 3.22100
C -0.25500 -3.42800 3.70100
C 0.71700 -3.48200 4.84800
O 1.93100 -3.25500 4.66900
O 0.03800 -3.55600 6.00300
C 0.94300 -3.58300 7.18300
H -1.85900 3.22000 2.49700
H -0.21800 2.45300 -3.47400
H 0.27600 -3.74700 -2.60500
H -1.55400 -0.94900 5.13200
H -1.58500 1.83100 4.66500
H -3.48400 -0.37700 3.96900
H -3.51100 1.02700 2.85800
H -3.85200 1.30100 4.54300
H 0.66900 1.09600 4.96600
H 1.13000 -0.63900 5.18900
H -0.84400 0.02600 7.12500
H 0.06200 1.47700 6.92100
H -1.34400 5.18600 1.93800
H -1.65100 5.96300 0.43200
H 0.00700 6.02000 1.08400
H -0.63500 6.74400 -1.40500
H 0.66500 6.97000 -2.70400
H 1.04800 6.46600 -1.03600
H 0.60800 0.50100 -4.89100
H -0.69200 -2.15600 -4.54700
H -1.26700 0.74000 -6.12900
H -2.20400 0.71400 -4.59600
H -1.96700 -0.72000 -5.45300
H 1.35600 -1.75900 -5.96700
H 1.45200 -3.15700 -4.90200
H 2.71400 -0.52200 -4.79800
H 3.48700 -2.12100 -4.52900
H 2.49500 -1.30300 -3.24000
H 0.86700 -6.33300 -0.08400
H 0.40400 -5.64200 -1.68000
H -0.89100 -5.99900 -0.46300
H -1.28300 -3.58100 4.02800
H 0.69800 -4.47800 7.75500
H 0.83300 -2.61900 7.68000
H 2.00000 -3.75400 6.97600
Mg 7.88993 0.71460 0.60533
C 7.83094 -1.49268 3.43438
C 6.77953 3.17496 2.69057
C 7.50031 2.56253 -1.94433
C 7.88199 -2.11597 -1.42777
N 7.40529 0.71813 2.76343
C 7.48007 -0.16332 3.74923
C 7.23897 0.43077 5.16290
C 6.37513 1.71654 4.73928
C 6.90617 1.91116 3.32055
C 4.88334 1.43883 4.65699
C 8.57540 0.84518 5.87300
C 8.44353 1.14345 7.36813
H 9.54819 0.77851 8.25075
N 7.71189 2.68606 0.46321
C 7.26563 3.53345 1.41404
C 7.30708 4.87407 0.80976
C 7.65796 4.72934 -0.62922
C 7.61568 3.28736 -0.76711
C 7.10676 6.13153 1.60479
C 7.96637 5.72468 -1.70643
O 8.01068 5.38742 -2.94220
C 8.12276 7.12338 -1.28138
N 7.50278 0.29552 -1.39387
C 7.43263 1.28110 -2.30582
C 7.42164 0.72533 -3.70988
C 7.74421 -0.83360 -3.55741
C 7.80019 -0.93096 -2.01702
C 6.11586 0.90118 -4.48474
C 8.94147 -1.38801 -4.37707
C 10.23672 -0.80967 -3.85435
N 8.04769 -1.41874 0.90868
C 7.99549 -2.42687 -0.07875
C 8.03014 -3.72620 0.62337
C 8.07723 -3.38115 1.98249
C 8.05190 -1.96682 2.11867
C 7.96841 -5.00728 0.00600
C 8.13188 -3.89189 3.33335
O 8.26032 -5.00765 3.83567
C 7.84720 -2.69393 4.33846
C 8.88820 -2.74038 5.42320
O 10.08585 -2.53420 5.15912
O 8.27554 -2.80409 6.61943
C 9.26648 -2.84098 7.72781
H 6.21804 3.95638 3.20342
H 7.47463 3.15467 -2.86204
H 7.98172 -3.04413 -1.99457
H 6.66346 -0.20082 5.82897
H 6.61724 2.57649 5.35835
H 4.66136 0.38948 4.78242
H 4.57499 1.77616 3.67608
H 4.34344 2.06379 5.37411
H 8.88164 1.83483 5.51028
H 9.33496 0.10378 5.71804
H 7.49064 0.78626 7.77722
H 8.40405 2.22700 7.50366
H 6.70260 5.91699 2.60180
H 6.31452 6.70151 1.10744
H 8.00757 6.74702 1.65359
H 7.21109 7.45577 -0.79063
H 8.42768 7.66855 -2.17675
H 8.92022 7.17411 -0.53165
H 8.19314 1.18635 -4.31432
H 6.89872 -1.45821 -3.88124
H 6.24566 1.44025 -5.44215
H 5.40917 1.41874 -3.84971
H 5.58703 -0.02235 -4.71414
H 8.86181 -1.07683 -5.42157
H 9.00678 -2.47090 -4.36775
H 10.29441 0.16046 -4.35696
H 11.07716 -1.44535 -4.12566
H 10.17612 -0.61940 -2.77649
H 8.70724 -5.62587 0.49789
H 8.15233 -4.94207 -1.06437
H 6.93377 -5.28148 0.22875
H 6.83919 -2.82929 4.73235
H 9.04840 -3.73392 8.32176
H 9.18051 -1.86323 8.23807
H 10.30470 -3.00914 7.46650

