%nproc=24
%mem=175gb
#p cam-b3lyp/Def2SVP td=(nstates=5)

TDDFT excited states in gaussian

0 1
Mg 8.94211 0.79727 0.67927
C 9.09501 -0.33656 -2.72222
C 8.28188 -2.42899 1.56802
C 8.35652 1.83207 3.62099
C 8.47712 4.02043 -0.56201
N 8.74046 -1.05440 -0.51358
C 8.88028 -1.37420 -1.79129
C 8.86464 -2.89970 -2.07792
C 8.04447 -3.37925 -0.78323
C 8.40081 -2.23878 0.16810
C 6.53889 -3.37642 -0.98948
C 10.30672 -3.51749 -2.10568
C 10.38917 -4.93246 -2.68256
H 11.57028 -5.29995 -3.45872
N 8.88400 -0.18966 2.40007
C 8.62338 -1.50192 2.57710
C 8.67935 -1.73089 4.02920
C 8.83141 -0.41433 4.70616
C 8.67216 0.48185 3.57850
C 8.67035 -3.10322 4.63752
C 9.06678 -0.02573 6.13437
O 8.92837 1.18401 6.53461
C 9.37285 -1.11840 7.06918
N 8.27303 2.61846 1.42623
C 8.15449 2.82110 2.75017
C 7.92463 4.28106 3.06012
C 8.15557 5.05486 1.67973
C 8.40233 3.84625 0.75033
C 6.54534 4.63387 3.61644
C 9.19627 6.20794 1.68487
C 10.58484 5.64899 1.89660
N 8.98972 1.73687 -1.26571
C 8.74140 3.09475 -1.56334
C 8.77614 3.23154 -3.03389
C 9.02138 1.92912 -3.49438
C 9.11161 1.03965 -2.38976
C 8.54712 4.43220 -3.76331
C 9.21387 1.10266 -4.66426
O 9.32840 1.31742 -5.87028
C 9.14432 -0.42259 -4.22248
C 10.31045 -1.14016 -4.84516
O 11.47556 -0.86106 -4.51162
O 9.85380 -2.18065 -5.56573
C 10.97411 -2.93021 -6.19412
H 7.84638 -3.36082 1.92985
H 8.25403 2.26111 4.62044
H 8.43872 5.00985 -1.02270
H 8.33730 -3.18710 -2.97963
H 8.42305 -4.32476 -0.40369
H 6.26287 -2.93821 -1.93707
H 6.13101 -2.79702 -0.17157
H 6.14020 -4.38796 -0.87047
H 10.63145 -3.71516 -1.07601
H 10.98696 -2.87380 -2.62872
H 9.47441 -5.21295 -3.21874
H 10.44245 -5.64256 -1.85374
H 8.38391 -3.86665 3.90366
H 7.86205 -3.12009 5.37659
H 9.61033 -3.34910 5.13616
H 8.55704 -1.83736 7.06389
H 9.59704 -0.63403 8.02155
H 10.26169 -1.64833 6.70897
H 8.64199 4.63944 3.78816
H 7.23432 5.54052 1.32579
H 6.58789 5.14727 4.59557
H 5.96368 3.72450 3.68886
H 5.92884 5.25121 2.96528
H 9.00465 6.88732 2.51906
H 9.18722 6.80199 0.77711
H 10.64434 5.54118 2.98376
H 11.33744 6.34254 1.52696
H 10.67666 4.64747 1.46052
H 9.29853 4.47239 -4.54065
H 8.59593 5.30577 -3.11657
H 7.53326 4.24808 -4.12865
H 8.18840 -0.81987 -4.56594
H 10.77303 -2.96324 -7.26937
H 11.02228 -3.89815 -5.66071
H 11.95597 -2.47184 -6.17657

