%nproc=24
%mem=175gb
#p cam-b3lyp/Def2SVP td=(nstates=5)

TDDFT excited states in gaussian

0 1
Mg 8.93818 0.79833 0.68647
C 6.24787 0.91349 3.05883
C 10.91437 2.20528 3.08433
C 11.20195 1.12636 -1.51242
C 6.53323 0.48482 -1.81625
N 8.52038 1.43116 2.76427
C 7.47743 1.36923 3.57837
C 7.78848 1.74537 5.05192
C 9.08557 2.65765 4.79856
C 9.56414 2.04267 3.48500
C 8.75374 4.11942 4.54864
C 8.13124 0.49064 5.92951
C 8.14234 0.74488 7.43848
H 7.67675 -0.31667 8.32662
N 10.89076 1.09105 0.88721
C 11.52540 1.65534 1.93606
C 12.95470 1.65729 1.58783
C 13.09489 1.19867 0.17903
C 11.70263 1.13948 -0.21870
C 14.03282 1.99198 2.57730
C 14.28556 0.88000 -0.67359
O 14.18409 0.72847 -1.94227
C 15.58819 0.84281 0.00705
N 8.87535 1.01805 -1.37995
C 10.00716 1.08712 -2.10256
C 9.71941 0.96505 -3.57995
C 8.17708 0.55540 -3.68483
C 7.80085 0.60062 -2.18756
C 9.96952 2.22230 -4.41250
C 7.84334 -0.72881 -4.49236
C 8.37945 -1.94515 -3.77230
N 6.79600 0.52673 0.61311
C 5.98545 0.44590 -0.54039
C 4.58248 0.37763 -0.08274
C 4.67347 0.44723 1.31560
C 6.03554 0.57185 1.70128
C 3.43542 0.31468 -0.92322
C 3.92625 0.45431 2.55266
O 2.74492 0.29044 2.85490
C 4.90311 0.88381 3.73065
C 4.70979 -0.08005 4.86912
O 5.02047 -1.27763 4.74304
O 4.39660 0.60904 5.98152
C 4.20583 -0.30274 7.14087
H 11.55910 2.84964 3.68268
H 11.95082 1.12574 -2.30783
H 5.73136 0.28710 -2.53081
H 7.01722 2.32450 5.54542
H 9.82789 2.51437 5.57944
H 7.68949 4.28242 4.46528
H 9.25000 4.37961 3.62286
H 9.20837 4.74654 5.32089
H 9.18474 0.22346 5.77623
H 7.46980 -0.32347 5.70509
H 7.66894 1.69928 7.69917
H 9.17912 0.86252 7.76294
H 13.61861 2.45005 3.48395
H 14.64437 2.78233 2.12874
H 14.67294 1.13771 2.80782
H 15.77874 1.80569 0.47503
H 16.30332 0.51162 -0.74846
H 15.53979 0.10427 0.81503
H 10.32164 0.18425 -4.02802
H 7.58138 1.33488 -4.18221
H 10.68135 2.06075 -5.24394
H 10.32552 3.00292 -3.75339
H 9.07878 2.67409 -4.84571
H 8.33704 -0.70237 -5.46689
H 6.78185 -0.86204 -4.67260
H 9.42714 -1.97586 -4.08612
H 7.84724 -2.84115 -4.08534
H 8.36487 -1.79775 -2.68616
H 2.77449 -0.42598 -0.49301
H 3.70556 0.06126 -1.94625
H 3.07370 1.34277 -0.83685
H 4.64751 1.90613 4.01189
H 3.20910 -0.10109 7.54529
H 5.06747 -0.11948 7.81000
H 4.14057 -1.36520 6.93749

