%nproc=24
%mem=175gb
#p cam-b3lyp/Def2SVP td=(nstates=5)

TDDFT excited states in gaussian

0 1
Mg 7.89145 0.71450 0.60333
C 8.48382 -1.44210 3.40996
C 7.39735 3.24194 2.83995
C 6.92537 2.53019 -1.81274
C 7.30656 -2.14834 -1.29609
N 7.95989 0.76894 2.81344
C 8.25579 -0.09766 3.77041
C 8.38935 0.52712 5.18511
C 7.47966 1.83103 4.95899
C 7.64527 1.98567 3.44858
C 6.00793 1.59707 5.25665
C 9.87047 0.91294 5.53073
C 10.12268 1.24014 7.00419
H 11.40289 0.85696 7.59302
N 7.73299 2.68777 0.46305
C 7.55897 3.56409 1.47451
C 7.48211 4.89250 0.84716
C 7.45977 4.71308 -0.63000
C 7.34843 3.27092 -0.71871
C 7.51765 6.16862 1.63690
C 7.51493 5.68041 -1.77343
O 7.24159 5.32123 -2.97305
C 7.80720 7.08071 -1.43398
N 7.00817 0.27372 -1.22639
C 6.73775 1.24549 -2.11547
C 6.36348 0.66677 -3.45913
C 6.67477 -0.89839 -3.35456
C 7.11022 -0.97148 -1.87455
C 4.91067 0.86885 -3.88912
C 7.61588 -1.50235 -4.43262
C 9.01455 -0.95460 -4.26210
N 8.06639 -1.41722 0.90862
C 7.74469 -2.43979 -0.01060
C 7.92062 -3.72758 0.69159
C 8.31339 -3.36129 1.98776
C 8.35816 -1.94475 2.09228
C 7.67504 -5.01642 0.13959
C 8.69001 -3.85066 3.29442
O 8.91157 -4.96118 3.77546
C 8.69471 -2.62793 4.30995
C 9.97160 -2.68749 5.10275
O 11.07049 -2.52198 4.54448
O 9.67482 -2.71257 6.41487
C 10.90936 -2.76067 7.24276
H 7.00102 4.04844 3.45751
H 6.68673 3.10732 -2.70910
H 7.23871 -3.08848 -1.84764
H 7.98228 -0.07556 5.98813
H 7.88977 2.69358 5.47782
H 5.79802 0.55715 5.45824
H 5.47351 1.92700 4.37540
H 5.67948 2.25000 6.07037
H 10.10136 1.88666 5.07985
H 10.54871 0.14647 5.20955
H 9.29310 0.91877 7.64564
H 10.14531 2.32652 7.11947
H 7.36934 5.98315 2.70788
H 6.64102 6.75377 1.33861
H 8.41733 6.75741 1.44564
H 7.05511 7.44864 -0.74011
H 7.89302 7.60131 -2.38975
H 8.76728 7.11999 -0.90738
H 6.97139 1.09409 -4.24713
H 5.75992 -1.50258 -3.44316
H 4.81135 1.38758 -4.86130
H 4.39761 1.41808 -3.11089
H 4.31844 -0.04205 -3.95787
H 7.28637 -1.20652 -5.43165
H 7.65435 -2.58640 -4.41406
H 8.96947 0.00476 -4.78621
H 9.74475 -1.61980 -4.71856
H 9.22912 -0.74450 -3.20784
H 8.49741 -5.64864 0.44701
H 7.58813 -4.97479 -0.94415
H 6.72198 -5.25552 0.61894
H 7.81352 -2.72620 4.94510
H 10.82384 -3.63652 7.89334
H 10.97768 -1.77233 7.73496
H 11.84523 -2.96443 6.73571

