%nproc=24
%mem=175gb
#p cam-b3lyp/Def2SVP td=(nstates=5)

TDDFT excited states in gaussian

0 1
Mg 0.00000 0.00000 0.00000
C -0.21700 -2.21800 2.80100
C -1.25500 2.44200 2.02600
C -0.24500 1.85000 -2.56400
C 0.14600 -2.82400 -2.03700
N -0.61700 -0.00900 2.12600
C -0.59400 -0.90800 3.10500
C -0.93600 -0.30900 4.50200
C -1.77300 0.96400 4.03200
C -1.15500 1.16800 2.66000
C -3.26300 0.68500 3.86300
C 0.34500 0.11000 5.29900
C 0.12400 0.39700 6.78700
H 1.16800 0.03300 7.73300
N -0.18500 1.96100 -0.15200
C -0.70300 2.80000 0.77700
C -0.62000 4.15600 0.19300
C -0.18700 4.01500 -1.22500
C -0.21400 2.58300 -1.38000
C -0.88700 5.40600 0.97400
C 0.18100 5.01300 -2.27700
O 0.30300 4.69000 -3.50800
C 0.31000 6.41400 -1.83700
N -0.26500 -0.41300 -2.02900
C -0.27900 0.56900 -2.93700
C -0.19600 0.02400 -4.33200
C 0.12400 -1.53300 -4.18000
C 0.08600 -1.63200 -2.63500
C -1.45100 0.20500 -5.19700
C 1.37300 -2.07000 -4.92300
C 2.62600 -1.49000 -4.30600
N 0.15000 -2.14400 0.30300
C 0.17300 -3.13600 -0.68800
C 0.17300 -4.43800 0.00400
C 0.13300 -4.11100 1.35800
C 0.08300 -2.69500 1.50200
C 0.14900 -5.71500 -0.62300
C 0.09600 -4.62900 2.71600
O 0.20800 -5.74700 3.22100
C -0.25500 -3.42800 3.70100
C 0.71700 -3.48200 4.84800
O 1.93100 -3.25500 4.66900
O 0.03800 -3.55600 6.00300
C 0.94300 -3.58300 7.18300
H -1.85900 3.22000 2.49700
H -0.21800 2.45300 -3.47400
H 0.27600 -3.74700 -2.60500
H -1.55400 -0.94900 5.13200
H -1.58500 1.83100 4.66500
H -3.48400 -0.37700 3.96900
H -3.51100 1.02700 2.85800
H -3.85200 1.30100 4.54300
H 0.66900 1.09600 4.96600
H 1.13000 -0.63900 5.18900
H -0.84400 0.02600 7.12500
H 0.06200 1.47700 6.92100
H -1.34400 5.18600 1.93800
H -1.65100 5.96300 0.43200
H 0.00700 6.02000 1.08400
H -0.63500 6.74400 -1.40500
H 0.66500 6.97000 -2.70400
H 1.04800 6.46600 -1.03600
H 0.60800 0.50100 -4.89100
H -0.69200 -2.15600 -4.54700
H -1.26700 0.74000 -6.12900
H -2.20400 0.71400 -4.59600
H -1.96700 -0.72000 -5.45300
H 1.35600 -1.75900 -5.96700
H 1.45200 -3.15700 -4.90200
H 2.71400 -0.52200 -4.79800
H 3.48700 -2.12100 -4.52900
H 2.49500 -1.30300 -3.24000
H 0.86700 -6.33300 -0.08400
H 0.40400 -5.64200 -1.68000
H -0.89100 -5.99900 -0.46300
H -1.28300 -3.58100 4.02800
H 0.69800 -4.47800 7.75500
H 0.83300 -2.61900 7.68000
H 2.00000 -3.75400 6.97600
Mg 7.88739 0.71460 0.60721
C 7.04253 -1.57914 3.23476
C 6.09428 3.07515 2.29456
C 8.23342 2.62719 -1.90072
C 8.61573 -2.05125 -1.38409
N 6.76051 0.63730 2.50890
C 6.56102 -0.27129 3.45177
C 5.87278 0.27161 4.73284
C 5.13335 1.54303 4.08816
C 6.06853 1.79704 2.90765
C 3.75159 1.22296 3.54262
C 6.90787 0.70432 5.82982
C 6.30962 0.95247 7.21628
H 7.10101 0.59424 8.39010
N 7.68663 2.68320 0.45601
C 6.93658 3.48714 1.23857
C 7.11121 4.84631 0.70346
C 7.89440 4.75644 -0.55878
C 7.95196 3.31875 -0.73150
C 6.62730 6.07216 1.42216
C 8.48194 5.79321 -1.46768
O 8.91841 5.49549 -2.63545
C 8.44585 7.18232 -0.98750
N 8.15259 0.34548 -1.42152
C 8.32971 1.35598 -2.29069
C 8.77393 0.84345 -3.63990
C 9.09308 -0.70895 -3.42595
C 8.67453 -0.85175 -1.94615
C 7.76537 1.00337 -4.77727
C 10.50518 -1.20148 -3.84553
C 11.55270 -0.60050 -2.93618
N 8.02532 -1.42129 0.90220
C 8.31908 -2.39979 -0.07264
C 8.18500 -3.71839 0.57985
C 7.79703 -3.41389 1.89334
C 7.67680 -2.00582 2.04296
C 8.36591 -4.98122 -0.05154
C 7.45153 -3.96393 3.18438
O 7.46124 -5.09017 3.67959
C 6.82488 -2.80650 4.07549
C 7.48119 -2.85467 5.42807
O 8.69306 -2.60434 5.55183
O 6.53211 -2.97353 6.37437
C 7.13318 -3.01437 7.73410
H 5.37243 3.82312 2.62376
H 8.46964 3.24614 -2.76938
H 8.92097 -2.95815 -1.91043
H 5.14438 -0.39723 5.17539
H 5.13946 2.39053 4.76865
H 3.54205 0.16402 3.57238
H 3.74841 1.58071 2.52133
H 2.99320 1.80901 4.06961
H 7.27302 1.71343 5.59939
H 7.70596 -0.00866 5.90296
H 5.29139 0.55424 7.30315
H 6.18880 2.02967 7.35436
H 5.94365 5.81502 2.24063
H 6.00608 6.63288 0.71538
H 7.44482 6.71284 1.75960
H 7.41520 7.47176 -0.79659
H 8.99117 7.76366 -1.73352
H 8.97039 7.23416 -0.02688
H 9.67610 1.34592 -3.96657
H 8.41339 -1.34864 -4.00790
H 8.16364 1.57522 -5.63660
H 6.87792 1.47959 -4.38209
H 7.36892 0.07172 -5.17735
H 10.73998 -0.86098 -4.85701
H 10.60581 -2.28167 -3.83788
H 11.72555 0.38588 -3.37694
H 12.45952 -1.20184 -2.94653
H 11.15512 -0.44530 -1.92649
H 8.93993 -5.59196 0.63257
H 8.86862 -4.87769 -1.01088
H 7.32433 -5.29331 -0.16548
H 5.75046 -2.98432 4.13523
H 6.77674 -3.93130 8.21357
H 6.85655 -2.05578 8.21193
H 8.20699 -3.14295 7.80375

