%nproc=24
%mem=175gb
#p cam-b3lyp/Def2SVP td=(nstates=5)

TDDFT excited states in gaussian

0 1
Mg 0.00000 0.00000 0.00000
C -0.21700 -2.21800 2.80100
C -1.25500 2.44200 2.02600
C -0.24500 1.85000 -2.56400
C 0.14600 -2.82400 -2.03700
N -0.61700 -0.00900 2.12600
C -0.59400 -0.90800 3.10500
C -0.93600 -0.30900 4.50200
C -1.77300 0.96400 4.03200
C -1.15500 1.16800 2.66000
C -3.26300 0.68500 3.86300
C 0.34500 0.11000 5.29900
C 0.12400 0.39700 6.78700
H 1.16800 0.03300 7.73300
N -0.18500 1.96100 -0.15200
C -0.70300 2.80000 0.77700
C -0.62000 4.15600 0.19300
C -0.18700 4.01500 -1.22500
C -0.21400 2.58300 -1.38000
C -0.88700 5.40600 0.97400
C 0.18100 5.01300 -2.27700
O 0.30300 4.69000 -3.50800
C 0.31000 6.41400 -1.83700
N -0.26500 -0.41300 -2.02900
C -0.27900 0.56900 -2.93700
C -0.19600 0.02400 -4.33200
C 0.12400 -1.53300 -4.18000
C 0.08600 -1.63200 -2.63500
C -1.45100 0.20500 -5.19700
C 1.37300 -2.07000 -4.92300
C 2.62600 -1.49000 -4.30600
N 0.15000 -2.14400 0.30300
C 0.17300 -3.13600 -0.68800
C 0.17300 -4.43800 0.00400
C 0.13300 -4.11100 1.35800
C 0.08300 -2.69500 1.50200
C 0.14900 -5.71500 -0.62300
C 0.09600 -4.62900 2.71600
O 0.20800 -5.74700 3.22100
C -0.25500 -3.42800 3.70100
C 0.71700 -3.48200 4.84800
O 1.93100 -3.25500 4.66900
O 0.03800 -3.55600 6.00300
C 0.94300 -3.58300 7.18300
H -1.85900 3.22000 2.49700
H -0.21800 2.45300 -3.47400
H 0.27600 -3.74700 -2.60500
H -1.55400 -0.94900 5.13200
H -1.58500 1.83100 4.66500
H -3.48400 -0.37700 3.96900
H -3.51100 1.02700 2.85800
H -3.85200 1.30100 4.54300
H 0.66900 1.09600 4.96600
H 1.13000 -0.63900 5.18900
H -0.84400 0.02600 7.12500
H 0.06200 1.47700 6.92100
H -1.34400 5.18600 1.93800
H -1.65100 5.96300 0.43200
H 0.00700 6.02000 1.08400
H -0.63500 6.74400 -1.40500
H 0.66500 6.97000 -2.70400
H 1.04800 6.46600 -1.03600
H 0.60800 0.50100 -4.89100
H -0.69200 -2.15600 -4.54700
H -1.26700 0.74000 -6.12900
H -2.20400 0.71400 -4.59600
H -1.96700 -0.72000 -5.45300
H 1.35600 -1.75900 -5.96700
H 1.45200 -3.15700 -4.90200
H 2.71400 -0.52200 -4.79800
H 3.48700 -2.12100 -4.52900
H 2.49500 -1.30300 -3.24000
H 0.86700 -6.33300 -0.08400
H 0.40400 -5.64200 -1.68000
H -0.89100 -5.99900 -0.46300
H -1.28300 -3.58100 4.02800
H 0.69800 -4.47800 7.75500
H 0.83300 -2.61900 7.68000
H 2.00000 -3.75400 6.97600
Mg 31.53940 2.83716 2.40325
C 31.64958 -0.74926 2.47067
C 30.42262 2.71448 5.62386
C 31.00240 5.95957 2.23119
C 31.55289 2.63371 -1.07585
N 31.12970 1.14199 3.76370
C 31.26695 -0.17386 3.70028
C 31.05570 -0.90843 5.05134
C 30.13660 0.18832 5.78021
C 30.61176 1.43664 5.03953
C 28.65263 0.00707 5.50762
C 32.40174 -1.13564 5.82501
C 32.31199 -2.11435 6.99797
H 33.45769 -2.97662 7.27422
N 31.29286 4.17920 3.84433
C 30.85251 3.95342 5.09987
C 30.82966 5.26759 5.76063
C 31.13516 6.30964 4.74302
C 31.13483 5.50755 3.53606
C 30.61632 5.43227 7.23738
C 31.37382 7.78616 4.83861
O 31.38633 8.53495 3.79843
C 31.49944 8.34360 6.19322
N 31.09723 4.10649 0.81718
C 30.96378 5.43076 1.00801
C 30.92232 6.17008 -0.30808
C 31.30023 5.08633 -1.42175
C 31.41249 3.83251 -0.52691
C 29.58556 6.82030 -0.66400
C 32.48580 5.43008 -2.36458
C 33.77893 5.44944 -1.58174
N 31.77649 1.26723 0.93793
C 31.72289 1.39676 -0.46721
C 31.82379 0.03625 -1.03401
C 31.90658 -0.79903 0.09024
C 31.84022 -0.01620 1.27441
C 31.78227 -0.29350 -2.41808
C 32.02434 -2.16592 0.54462
O 32.20608 -3.25149 -0.00514
C 31.73591 -2.20564 2.10719
C 32.81470 -3.02741 2.75791
O 33.99521 -2.63627 2.75576
O 32.24608 -4.02458 3.45983
C 33.27537 -4.86103 4.13269
H 29.85417 2.78161 6.55190
H 30.92591 7.04292 2.11296
H 31.66297 2.49435 -2.15341
H 30.52427 -1.84972 4.97838
H 30.37198 0.26036 6.83887
H 28.46918 -0.76084 4.77086
H 28.29985 0.96582 5.15071
H 28.11787 -0.18171 6.44289
H 32.66309 -0.21720 6.36622
H 33.17910 -1.44595 5.15415
H 31.38585 -2.70144 6.97500
H 32.24216 -1.53975 7.92479
H 30.25397 4.50463 7.69737
H 29.78936 6.13933 7.36410
H 31.49789 5.82410 7.74921
H 30.59498 8.12888 6.75741
H 31.75547 9.39567 6.05370
H 32.32025 7.83142 6.70757
H 31.65717 6.96550 -0.32813
H 30.46473 4.90478 -2.11371
H 29.66472 7.90841 -0.84793
H 28.88484 6.61979 0.13558
H 29.07929 6.39238 -1.52759
H 32.36010 6.43252 -2.78107
H 32.58640 4.74473 -3.19954
H 33.78781 6.45241 -1.14465
H 34.62963 5.29974 -2.24350
H 33.74945 4.72993 -0.75525
H 32.55728 -1.02944 -2.58619
H 31.92693 0.58672 -3.04102
H 30.76536 -0.68767 -2.49425
H 30.74700 -2.64400 2.24674
H 33.10694 -5.89390 3.81253
H 33.17547 -4.64595 5.21320
H 34.30885 -4.71506 3.84100

