%nproc=24
%mem=175gb
#p cam-b3lyp/Def2SVP td=(nstates=5)

TDDFT excited states in gaussian

0 1
Mg 7.88563 0.71785 0.60513
C 9.13307 -1.01334 3.49061
C 5.51520 2.08988 2.63815
C 6.48972 1.90104 -1.98695
C 9.57737 -1.61561 -1.35413
N 7.47973 0.49089 2.76754
C 8.05786 -0.14583 3.77486
C 7.50115 0.22626 5.17528
C 6.04458 0.73345 4.72803
C 6.36492 1.16725 3.29909
C 5.01160 -0.37958 4.66907
C 8.32374 1.37368 5.85996
C 8.03033 1.57537 7.34824
H 9.12935 1.96357 8.22797
N 6.57021 2.19154 0.41418
C 5.70097 2.63242 1.34762
C 4.94043 3.71748 0.70857
C 5.31810 3.77096 -0.72991
C 6.14322 2.58385 -0.83012
C 4.02580 4.62987 1.47305
C 4.98073 4.72470 -1.83569
O 5.22527 4.44663 -3.06277
C 4.27115 5.95276 -1.44855
N 7.83723 0.09657 -1.37830
C 7.20036 0.82169 -2.31453
C 7.53162 0.33064 -3.70361
C 8.71761 -0.72542 -3.51450
C 8.81030 -0.72848 -1.97282
C 6.38280 -0.32620 -4.46856
C 10.01513 -0.48051 -4.33251
C 10.70831 0.76899 -3.83891
N 9.28003 -0.89355 0.96164
C 9.84463 -1.76116 0.00114
C 10.64109 -2.76511 0.73610
C 10.46454 -2.42303 2.08529
C 9.60156 -1.29841 2.18524
C 11.35801 -3.84758 0.15266
C 10.80345 -2.76407 3.44820
O 11.56735 -3.57018 3.97769
C 9.85504 -1.94397 4.42511
C 10.71201 -1.33235 5.49937
O 11.55349 -0.46122 5.21712
O 10.24965 -1.71562 6.70340
C 11.06054 -1.12547 7.80158
H 4.59553 2.39731 3.13673
H 6.12278 2.33645 -2.91929
H 10.21365 -2.31716 -1.89786
H 7.41013 -0.60544 5.86359
H 5.72323 1.58504 5.32207
H 5.45690 -1.35112 4.82390
H 4.56958 -0.31877 3.68318
H 4.20104 -0.17942 5.37564
H 7.98327 2.34096 5.46856
H 9.37639 1.22597 5.71595
H 7.47444 0.73254 7.77669
H 7.35283 2.42587 7.45622
H 3.82208 4.24410 2.47957
H 3.05326 4.60273 0.96977
H 4.38307 5.66161 1.49622
H 3.33746 5.69054 -0.95670
H 4.19769 6.54778 -2.36093
H 4.87681 6.48842 -0.70905
H 7.88125 1.14362 -4.32804
H 8.41206 -1.73903 -3.81296
H 6.17266 0.15803 -5.44090
H 5.50267 -0.31378 -3.83948
H 6.50900 -1.38892 -4.66836
H 9.77286 -0.30634 -5.38376
H 10.71202 -1.31118 -4.29598
H 10.18064 1.56888 -4.36695
H 11.76380 0.75116 -4.10282
H 10.53921 0.91501 -2.76572
H 12.31661 -3.89142 0.65232
H 11.47412 -3.71482 -0.92096
H 10.68829 -4.67746 0.39359
H 9.12294 -2.64185 4.83325
H 11.41277 -1.95633 8.42067
H 10.40617 -0.37744 8.28736
H 11.99667 -0.64981 7.53347

