%nproc=24
%mem=175gb
#p cam-b3lyp/Def2SVP td=(nstates=5)

TDDFT excited states in gaussian

0 1
Mg 8.94075 0.81267 0.67893
C 8.37164 2.01663 4.01145
C 7.86916 3.85093 -0.44147
C 9.00148 -0.36346 -2.26733
C 8.86355 -2.41864 1.98215
N 8.23821 2.61903 1.74465
C 8.12315 2.98175 3.01333
C 7.79699 4.48445 3.22562
C 7.11290 4.78517 1.80419
C 7.80446 3.71048 0.96785
C 5.61752 4.51519 1.78684
C 9.08716 5.35203 3.43719
C 8.83146 6.76891 3.95567
H 9.79740 7.35685 4.87966
N 8.97404 1.74187 -1.07437
C 8.51773 2.98240 -1.34665
C 8.75372 3.19150 -2.78357
C 9.23555 1.91180 -3.37089
C 9.06550 1.02207 -2.23972
C 8.59746 4.52862 -3.44773
C 9.75056 1.54622 -4.73005
O 9.88893 0.32431 -5.09145
C 9.99957 2.65911 -5.65794
N 8.72299 -1.11234 -0.07554
C 8.84527 -1.35683 -1.39205
C 8.92473 -2.83967 -1.66641
C 9.07418 -3.53428 -0.23366
C 8.96062 -2.28445 0.66658
C 7.72991 -3.44488 -2.40296
C 10.28915 -4.48118 -0.03390
C 11.57414 -3.68540 -0.06418
N 8.85473 -0.06781 2.65007
C 8.80561 -1.44262 2.96877
C 8.63889 -1.54440 4.43310
C 8.57900 -0.21103 4.86557
C 8.67958 0.66011 3.74731
C 8.51509 -2.75333 5.17423
C 8.44289 0.65753 6.01264
O 8.40780 0.48865 7.23083
C 8.17552 2.13715 5.49726
C 9.08902 3.06395 6.25164
O 10.32203 2.99308 6.10586
O 8.35262 4.01810 6.84972
C 9.21507 4.96822 7.60157
H 7.33760 4.68251 -0.90494
H 9.12950 -0.82187 -3.25066
H 8.92917 -3.39036 2.47624
H 7.09609 4.68847 4.02617
H 7.37344 5.77638 1.44226
H 5.28117 4.05162 2.70232
H 5.44714 3.85721 0.94477
H 5.07074 5.43617 1.56513
H 9.52556 5.58633 2.45859
H 9.78169 4.85079 4.08296
H 7.81076 6.88984 4.33841
H 8.88542 7.46195 3.11257
H 8.07312 5.24114 -2.79905
H 7.92114 4.38644 -4.29758
H 9.54477 4.93060 -3.81336
H 9.07935 3.21950 -5.80496
H 10.44784 2.20589 -6.54424
H 10.71628 3.34673 -5.19522
H 9.79638 -3.07618 -2.26424
H 8.20918 -4.17132 0.00253
H 8.01068 -3.95980 -3.34110
H 7.01594 -2.65647 -2.60093
H 7.13900 -4.15124 -1.82237
H 10.34910 -5.19887 -0.85577
H 10.24583 -5.05070 0.88847
H 11.77908 -3.58826 -1.13453
H 12.37120 -4.22543 0.44288
H 11.42146 -2.67600 0.33515
H 9.13432 -2.64364 6.05458
H 8.81429 -3.61537 4.58165
H 7.44096 -2.74810 5.37793
H 7.12375 2.36207 5.67826
H 8.84956 4.98390 8.63300
H 9.17380 5.91925 7.03802
H 10.25302 4.69377 7.74916

