%nproc=24
%mem=175gb
#p cam-b3lyp/Def2SVP td=(nstates=5)

TDDFT excited states in gaussian

0 1
Mg 0.00000 0.00000 0.00000
C -0.21700 -2.21800 2.80100
C -1.25500 2.44200 2.02600
C -0.24500 1.85000 -2.56400
C 0.14600 -2.82400 -2.03700
N -0.61700 -0.00900 2.12600
C -0.59400 -0.90800 3.10500
C -0.93600 -0.30900 4.50200
C -1.77300 0.96400 4.03200
C -1.15500 1.16800 2.66000
C -3.26300 0.68500 3.86300
C 0.34500 0.11000 5.29900
C 0.12400 0.39700 6.78700
H 1.16800 0.03300 7.73300
N -0.18500 1.96100 -0.15200
C -0.70300 2.80000 0.77700
C -0.62000 4.15600 0.19300
C -0.18700 4.01500 -1.22500
C -0.21400 2.58300 -1.38000
C -0.88700 5.40600 0.97400
C 0.18100 5.01300 -2.27700
O 0.30300 4.69000 -3.50800
C 0.31000 6.41400 -1.83700
N -0.26500 -0.41300 -2.02900
C -0.27900 0.56900 -2.93700
C -0.19600 0.02400 -4.33200
C 0.12400 -1.53300 -4.18000
C 0.08600 -1.63200 -2.63500
C -1.45100 0.20500 -5.19700
C 1.37300 -2.07000 -4.92300
C 2.62600 -1.49000 -4.30600
N 0.15000 -2.14400 0.30300
C 0.17300 -3.13600 -0.68800
C 0.17300 -4.43800 0.00400
C 0.13300 -4.11100 1.35800
C 0.08300 -2.69500 1.50200
C 0.14900 -5.71500 -0.62300
C 0.09600 -4.62900 2.71600
O 0.20800 -5.74700 3.22100
C -0.25500 -3.42800 3.70100
C 0.71700 -3.48200 4.84800
O 1.93100 -3.25500 4.66900
O 0.03800 -3.55600 6.00300
C 0.94300 -3.58300 7.18300
H -1.85900 3.22000 2.49700
H -0.21800 2.45300 -3.47400
H 0.27600 -3.74700 -2.60500
H -1.55400 -0.94900 5.13200
H -1.58500 1.83100 4.66500
H -3.48400 -0.37700 3.96900
H -3.51100 1.02700 2.85800
H -3.85200 1.30100 4.54300
H 0.66900 1.09600 4.96600
H 1.13000 -0.63900 5.18900
H -0.84400 0.02600 7.12500
H 0.06200 1.47700 6.92100
H -1.34400 5.18600 1.93800
H -1.65100 5.96300 0.43200
H 0.00700 6.02000 1.08400
H -0.63500 6.74400 -1.40500
H 0.66500 6.97000 -2.70400
H 1.04800 6.46600 -1.03600
H 0.60800 0.50100 -4.89100
H -0.69200 -2.15600 -4.54700
H -1.26700 0.74000 -6.12900
H -2.20400 0.71400 -4.59600
H -1.96700 -0.72000 -5.45300
H 1.35600 -1.75900 -5.96700
H 1.45200 -3.15700 -4.90200
H 2.71400 -0.52200 -4.79800
H 3.48700 -2.12100 -4.52900
H 2.49500 -1.30300 -3.24000
H 0.86700 -6.33300 -0.08400
H 0.40400 -5.64200 -1.68000
H -0.89100 -5.99900 -0.46300
H -1.28300 -3.58100 4.02800
H 0.69800 -4.47800 7.75500
H 0.83300 -2.61900 7.68000
H 2.00000 -3.75400 6.97600
Mg 7.87345 0.71286 0.60175
C 5.89667 -2.08346 -0.47154
C 6.00527 2.64773 -1.49604
C 9.87772 3.10310 1.18233
C 10.26133 -1.57494 1.70165
N 6.19542 0.22934 -0.75570
C 5.48920 -0.85600 -1.03434
C 4.23014 -0.59817 -1.90488
C 4.70097 0.76523 -2.61082
C 5.66962 1.27108 -1.54381
C 5.48077 0.53963 -3.89547
C 2.93939 -0.38095 -1.03955
C 1.62492 -0.43158 -1.82143
H 0.45079 -1.00838 -1.17243
N 7.65319 2.66708 0.33520
C 6.83398 3.28118 -0.54404
C 7.05765 4.72380 -0.36237
C 8.19495 4.90716 0.57977
C 8.64259 3.53629 0.72259
C 6.18006 5.76848 -0.98840
C 8.79021 6.11770 1.23282
O 9.92420 6.07236 1.82852
C 8.05103 7.37858 1.07389
N 9.88034 0.77058 1.14160
C 10.49764 1.94022 1.38409
C 11.84966 1.72183 2.02029
C 11.90976 0.16418 2.37765
C 10.55873 -0.28508 1.77909
C 13.05740 2.09335 1.16022
C 12.22510 -0.20789 3.85237
C 11.08108 0.21258 4.74668
N 7.99614 -1.43555 0.79496
C 9.09842 -2.18908 1.25460
C 8.74725 -3.61527 1.09622
C 7.46396 -3.59224 0.52954
C 7.05312 -2.24671 0.32891
C 9.58836 -4.71919 1.41248
C 6.36778 -4.40027 0.04563
O 6.11135 -5.60358 0.04141
C 5.35583 -3.46025 -0.74095
C 3.96438 -3.77241 -0.26247
O 3.63074 -3.53184 0.91117
O 3.19783 -4.09838 -1.31912
C 1.80542 -4.40579 -0.89660
H 5.63341 3.30015 -2.28658
H 10.56495 3.89042 1.50063
H 10.91249 -2.34980 2.11184
H 4.03278 -1.35574 -2.65382
H 3.87012 1.45582 -2.72973
H 5.69213 -0.50650 -4.06005
H 6.40069 1.09836 -3.78317
H 4.95432 0.99254 -4.74049
H 2.91177 0.66009 -0.69281
H 2.90351 -1.08000 -0.22673
H 1.75765 -0.85661 -2.82377
H 1.29159 0.59245 -2.00653
H 5.52946 5.33783 -1.75954
H 6.83748 6.45098 -1.53781
H 5.61411 6.34068 -0.25019
H 7.94681 7.60515 0.01547
H 8.58509 8.10936 1.68433
H 7.03770 7.24210 1.46779
H 11.94444 2.29588 2.93385
H 12.69420 -0.35472 1.80737
H 13.72315 2.83545 1.63995
H 12.69824 2.46347 0.20914
H 13.68560 1.25640 0.86009
H 13.10685 0.33605 4.19994
H 12.42034 -1.26497 3.99886
H 11.28805 1.27102 4.93095
H 11.08921 -0.35828 5.67302
H 10.12378 0.15139 4.21614
H 8.96933 -5.44683 1.92025
H 10.43083 -4.41323 2.02925
H 9.90187 -5.01928 0.40902
H 5.47834 -3.66497 -1.80521
H 1.57174 -5.40732 -1.27080
H 1.18713 -3.56993 -1.27449
H 1.61877 -4.52740 0.16397

