%nproc=24
%mem=175gb
#p cam-b3lyp/Def2SVP td=(nstates=5)

TDDFT excited states in gaussian

0 1
Mg 31.52905 2.84695 2.40112
C 33.74860 2.68410 5.21646
C 28.95524 2.39801 4.59397
C 29.59079 2.53527 -0.09156
C 34.27370 2.14084 0.37283
N 31.48445 2.58773 4.59727
C 32.38504 2.60468 5.56835
C 31.78650 2.61336 7.00056
C 30.36176 1.95035 6.66979
C 30.23416 2.36334 5.20493
C 30.37384 0.43231 6.73874
C 31.62537 4.06568 7.57226
C 31.33873 4.13762 9.07373
H 31.90800 5.24355 9.83879
N 29.55424 3.00384 2.28234
C 28.66134 2.80986 3.27551
C 27.33656 3.02519 2.67322
C 27.51130 3.20026 1.20573
C 28.92084 2.89247 1.06953
C 26.07962 3.12845 3.48737
C 26.56346 3.56948 0.10506
O 26.87845 3.43077 -1.12959
C 25.22214 4.01004 0.51525
N 31.83419 2.19529 0.45059
C 30.83337 2.20847 -0.44725
C 31.35049 1.96055 -1.84422
C 32.94451 2.01854 -1.72887
C 33.08098 2.20967 -0.20236
C 30.93453 0.63523 -2.48209
C 33.68233 3.01250 -2.66713
C 33.34887 4.43455 -2.27728
N 33.66292 2.65790 2.68198
C 34.62658 2.33184 1.70263
C 35.92591 2.20802 2.39461
C 35.62163 2.44991 3.74272
C 34.22750 2.68646 3.88402
C 37.16405 1.86164 1.78376
C 36.16106 2.54845 5.07988
O 37.29198 2.52877 5.56399
C 34.95221 2.57956 6.11144
C 35.20090 3.69906 7.08479
O 35.20109 4.88197 6.70094
O 35.18094 3.20690 8.33689
C 35.41197 4.28139 9.33884
H 28.09846 2.03601 5.16296
H 28.98495 2.52250 -1.00056
H 35.19350 2.01947 -0.20330
H 32.32149 2.00530 7.72017
H 29.56967 2.39979 7.26305
H 31.37083 0.04352 6.88365
H 29.96841 0.09174 5.79499
H 29.67894 0.08438 7.50841
H 30.69707 4.50292 7.18260
H 32.48441 4.66433 7.33928
H 31.53271 3.18243 9.57663
H 30.26778 4.30229 9.21506
H 26.24047 2.79425 4.51977
H 25.37059 2.40282 3.07433
H 25.63144 4.12348 3.44588
H 24.74603 3.22417 1.09679
H 24.72054 4.31509 -0.40520
H 25.32603 4.87467 1.18026
H 31.01879 2.73682 -2.52281
H 33.40578 1.04873 -1.96662
H 30.40721 0.76150 -3.44649
H 30.31469 0.09694 -1.77741
H 31.74712 -0.06740 -2.65875
H 33.34116 2.88501 -3.69742
H 34.76001 2.88767 -2.66696
H 32.39373 4.61099 -2.78091
H 34.11558 5.11936 -2.63397
H 33.17261 4.51583 -1.19840
H 37.91154 2.52591 2.19668
H 37.11042 1.94665 0.70040
H 37.25837 0.82236 2.10978
H 34.91790 1.60772 6.60533
H 36.26504 3.97047 9.94981
H 34.44460 4.41929 9.85744
H 35.75302 5.24283 8.97309

