%nproc=24
%mem=175gb
#p cam-b3lyp/Def2SVP td=(nstates=5)

TDDFT excited states in gaussian

0 1
Mg 0.00000 0.00000 0.00000
C -0.21700 -2.21800 2.80100
C -1.25500 2.44200 2.02600
C -0.24500 1.85000 -2.56400
C 0.14600 -2.82400 -2.03700
N -0.61700 -0.00900 2.12600
C -0.59400 -0.90800 3.10500
C -0.93600 -0.30900 4.50200
C -1.77300 0.96400 4.03200
C -1.15500 1.16800 2.66000
C -3.26300 0.68500 3.86300
C 0.34500 0.11000 5.29900
C 0.12400 0.39700 6.78700
H 1.16800 0.03300 7.73300
N -0.18500 1.96100 -0.15200
C -0.70300 2.80000 0.77700
C -0.62000 4.15600 0.19300
C -0.18700 4.01500 -1.22500
C -0.21400 2.58300 -1.38000
C -0.88700 5.40600 0.97400
C 0.18100 5.01300 -2.27700
O 0.30300 4.69000 -3.50800
C 0.31000 6.41400 -1.83700
N -0.26500 -0.41300 -2.02900
C -0.27900 0.56900 -2.93700
C -0.19600 0.02400 -4.33200
C 0.12400 -1.53300 -4.18000
C 0.08600 -1.63200 -2.63500
C -1.45100 0.20500 -5.19700
C 1.37300 -2.07000 -4.92300
C 2.62600 -1.49000 -4.30600
N 0.15000 -2.14400 0.30300
C 0.17300 -3.13600 -0.68800
C 0.17300 -4.43800 0.00400
C 0.13300 -4.11100 1.35800
C 0.08300 -2.69500 1.50200
C 0.14900 -5.71500 -0.62300
C 0.09600 -4.62900 2.71600
O 0.20800 -5.74700 3.22100
C -0.25500 -3.42800 3.70100
C 0.71700 -3.48200 4.84800
O 1.93100 -3.25500 4.66900
O 0.03800 -3.55600 6.00300
C 0.94300 -3.58300 7.18300
H -1.85900 3.22000 2.49700
H -0.21800 2.45300 -3.47400
H 0.27600 -3.74700 -2.60500
H -1.55400 -0.94900 5.13200
H -1.58500 1.83100 4.66500
H -3.48400 -0.37700 3.96900
H -3.51100 1.02700 2.85800
H -3.85200 1.30100 4.54300
H 0.66900 1.09600 4.96600
H 1.13000 -0.63900 5.18900
H -0.84400 0.02600 7.12500
H 0.06200 1.47700 6.92100
H -1.34400 5.18600 1.93800
H -1.65100 5.96300 0.43200
H 0.00700 6.02000 1.08400
H -0.63500 6.74400 -1.40500
H 0.66500 6.97000 -2.70400
H 1.04800 6.46600 -1.03600
H 0.60800 0.50100 -4.89100
H -0.69200 -2.15600 -4.54700
H -1.26700 0.74000 -6.12900
H -2.20400 0.71400 -4.59600
H -1.96700 -0.72000 -5.45300
H 1.35600 -1.75900 -5.96700
H 1.45200 -3.15700 -4.90200
H 2.71400 -0.52200 -4.79800
H 3.48700 -2.12100 -4.52900
H 2.49500 -1.30300 -3.24000
H 0.86700 -6.33300 -0.08400
H 0.40400 -5.64200 -1.68000
H -0.89100 -5.99900 -0.46300
H -1.28300 -3.58100 4.02800
H 0.69800 -4.47800 7.75500
H 0.83300 -2.61900 7.68000
H 2.00000 -3.75400 6.97600
Mg 7.89035 0.71458 0.60487
C 7.99428 -1.47830 3.44380
C 6.92997 3.19300 2.74255
C 7.35384 2.55270 -1.92513
C 7.73540 -2.12581 -1.40856
N 7.54235 0.73216 2.78909
C 7.67294 -0.14495 3.77295
C 7.52521 0.45778 5.19578
C 6.64522 1.74758 4.82039
C 7.08735 1.93144 3.37008
C 5.14936 1.48010 4.83345
C 8.90641 0.86614 5.81830
C 8.87081 1.17266 7.31714
H 10.02625 0.80420 8.13057
N 7.71715 2.68654 0.46367
C 7.33731 3.54174 1.43611
C 7.34982 4.87906 0.82326
C 7.60858 4.72476 -0.63412
C 7.54790 3.28247 -0.76137
C 7.20842 6.14180 1.62257
C 7.85543 5.71258 -1.73389
O 7.81970 5.36895 -2.96818
C 8.04774 7.11220 -1.32698
N 7.37548 0.28846 -1.36380
C 7.25486 1.27003 -2.27480
C 7.15187 0.70747 -3.67241
C 7.47277 -0.85296 -3.53216
C 7.62479 -0.94315 -1.99784
C 5.80120 0.88881 -4.36464
C 8.61235 -1.41990 -4.42244
C 9.94180 -0.84824 -3.98521
N 8.05235 -1.41831 0.90911
C 7.93134 -2.43088 -0.06769
C 8.00121 -3.72697 0.63780
C 8.13597 -3.37558 1.98941
C 8.12888 -1.96046 2.11935
C 7.89208 -5.01059 0.03239
C 8.27194 -3.88007 3.33689
O 8.42411 -4.99424 3.83611
C 8.05915 -2.67519 4.35147
C 9.16593 -2.72373 5.36892
O 10.34599 -2.52739 5.02903
O 8.62924 -2.77720 6.60160
C 9.68761 -2.81571 7.64572
H 6.40715 3.98090 3.28547
H 7.27457 3.14050 -2.84257
H 7.79299 -3.05742 -1.97553
H 6.98841 -0.16643 5.90005
H 6.93161 2.60880 5.41841
H 4.92856 0.43299 4.97818
H 4.78227 1.81480 3.87206
H 4.65986 2.11240 5.57971
H 9.19598 1.85178 5.43178
H 9.64968 0.11859 5.61991
H 7.94310 0.82429 7.78719
H 8.84729 2.25712 7.44909
H 6.86627 5.93503 2.64413
H 6.39039 6.71495 1.17292
H 8.11469 6.75108 1.61140
H 7.17100 7.45348 -0.78172
H 8.29949 7.65078 -2.24264
H 8.89107 7.16093 -0.62910
H 7.88698 1.16001 -4.32657
H 6.60437 -1.47310 -3.79890
H 5.87424 1.42224 -5.33118
H 5.13936 1.41451 -3.68925
H 5.25273 -0.03204 -4.55544
H 8.46932 -1.11329 -5.46152
H 8.67075 -2.50316 -4.41144
H 9.97438 0.11897 -4.49562
H 10.75918 -1.49122 -4.30537
H 9.95035 -0.65226 -2.90670
H 8.65615 -5.63200 0.48020
H 8.00881 -4.95195 -1.04776
H 6.87166 -5.27631 0.32115
H 7.07699 -2.80143 4.80862
H 9.50122 -3.70415 8.25696
H 9.64053 -1.83488 8.15514
H 10.70618 -2.99255 7.32062

