%nproc=24
%mem=175gb
#p cam-b3lyp/Def2SVP td=(nstates=5)

TDDFT excited states in gaussian

0 1
Mg 7.89038 0.70512 0.60507
C 8.08887 -2.56014 -0.87064
C 6.92518 -0.82417 3.49718
C 7.27189 3.57814 1.80118
C 7.74969 2.00457 -2.62561
N 7.58375 -1.42343 1.12230
C 7.74924 -2.57991 0.49820
C 7.61750 -3.82822 1.41140
C 6.70683 -3.18544 2.56742
C 7.11779 -1.72216 2.41708
C 5.21668 -3.29397 2.28988
C 9.00252 -4.30803 1.97133
C 8.98979 -5.69608 2.61548
H 10.16712 -6.54603 2.46075
N 7.67807 1.29363 2.48846
C 7.30106 0.53642 3.54002
C 7.27716 1.44150 4.69951
C 7.51094 2.82943 4.21608
C 7.47454 2.61896 2.78274
C 7.12767 0.95219 6.11077
C 7.71850 4.13282 4.92622
O 7.66563 5.25334 4.30615
C 7.89259 4.06442 6.38447
N 7.34609 2.51003 -0.27150
C 7.19001 3.61998 0.47120
C 7.07086 4.84730 -0.40051
C 7.42318 4.35806 -1.88176
C 7.60602 2.84822 -1.61280
C 5.70413 5.53173 -0.40246
C 8.55590 5.11919 -2.62357
C 9.88263 4.85612 -1.94831
N 8.09756 -0.07940 -1.39734
C 7.97673 0.63432 -2.60981
C 8.08397 -0.34947 -3.70666
C 8.23792 -1.58006 -3.05059
C 8.20712 -1.38002 -1.64399
C 7.98710 -0.05930 -5.09682
C 8.40883 -3.00414 -3.22807
O 8.59105 -3.74342 -4.19451
C 8.19314 -3.71783 -1.82432
C 9.31979 -4.69351 -1.62133
O 10.48933 -4.29067 -1.49284
O 8.80775 -5.91715 -1.39573
C 9.88633 -6.91757 -1.17746
H 6.39831 -1.18236 4.38205
H 7.16431 4.60441 2.15988
H 7.81370 2.34239 -3.66217
H 7.10585 -4.66958 0.95964
H 6.98856 -3.56187 3.54736
H 5.01809 -3.68146 1.30168
H 4.82523 -2.28991 2.38828
H 4.72986 -3.88512 3.07084
H 9.26639 -3.69797 2.84479
H 9.75557 -4.27063 1.20835
H 8.07780 -6.25486 2.37260
H 8.94874 -5.57468 3.70065
H 6.80891 -0.09704 6.14109
H 6.29076 1.50321 6.55330
H 8.02213 1.12433 6.71324
H 7.02023 3.59280 6.83059
H 8.11686 5.08515 6.70020
H 8.74801 3.41604 6.60465
H 7.78488 5.60483 -0.10147
H 6.56148 4.45461 -2.55851
H 5.74888 6.59669 -0.10594
H 5.04566 4.98100 0.25605
H 5.16926 5.49229 -1.34986
H 8.38747 6.19745 -2.56741
H 8.63453 4.85982 -3.67406
H 9.88759 5.57659 -1.12491
H 10.70552 5.03779 -2.63670
H 9.90808 3.85245 -1.50826
H 8.77092 -0.62091 -5.58745
H 8.08215 1.00759 -5.28784
H 6.97745 -0.42478 -5.30246
H 7.22235 -4.21403 -1.85483
H 9.72808 -7.72144 -1.90302
H 9.83082 -7.18780 -0.10618
H 10.90163 -6.61893 -1.41079

