%nproc=24
%mem=175gb
#p cam-b3lyp/Def2SVP td=(nstates=5)

TDDFT excited states in gaussian

0 1
Mg 0.00000 0.00000 0.00000
C -0.21700 -2.21800 2.80100
C -1.25500 2.44200 2.02600
C -0.24500 1.85000 -2.56400
C 0.14600 -2.82400 -2.03700
N -0.61700 -0.00900 2.12600
C -0.59400 -0.90800 3.10500
C -0.93600 -0.30900 4.50200
C -1.77300 0.96400 4.03200
C -1.15500 1.16800 2.66000
C -3.26300 0.68500 3.86300
C 0.34500 0.11000 5.29900
C 0.12400 0.39700 6.78700
H 1.16800 0.03300 7.73300
N -0.18500 1.96100 -0.15200
C -0.70300 2.80000 0.77700
C -0.62000 4.15600 0.19300
C -0.18700 4.01500 -1.22500
C -0.21400 2.58300 -1.38000
C -0.88700 5.40600 0.97400
C 0.18100 5.01300 -2.27700
O 0.30300 4.69000 -3.50800
C 0.31000 6.41400 -1.83700
N -0.26500 -0.41300 -2.02900
C -0.27900 0.56900 -2.93700
C -0.19600 0.02400 -4.33200
C 0.12400 -1.53300 -4.18000
C 0.08600 -1.63200 -2.63500
C -1.45100 0.20500 -5.19700
C 1.37300 -2.07000 -4.92300
C 2.62600 -1.49000 -4.30600
N 0.15000 -2.14400 0.30300
C 0.17300 -3.13600 -0.68800
C 0.17300 -4.43800 0.00400
C 0.13300 -4.11100 1.35800
C 0.08300 -2.69500 1.50200
C 0.14900 -5.71500 -0.62300
C 0.09600 -4.62900 2.71600
O 0.20800 -5.74700 3.22100
C -0.25500 -3.42800 3.70100
C 0.71700 -3.48200 4.84800
O 1.93100 -3.25500 4.66900
O 0.03800 -3.55600 6.00300
C 0.94300 -3.58300 7.18300
H -1.85900 3.22000 2.49700
H -0.21800 2.45300 -3.47400
H 0.27600 -3.74700 -2.60500
H -1.55400 -0.94900 5.13200
H -1.58500 1.83100 4.66500
H -3.48400 -0.37700 3.96900
H -3.51100 1.02700 2.85800
H -3.85200 1.30100 4.54300
H 0.66900 1.09600 4.96600
H 1.13000 -0.63900 5.18900
H -0.84400 0.02600 7.12500
H 0.06200 1.47700 6.92100
H -1.34400 5.18600 1.93800
H -1.65100 5.96300 0.43200
H 0.00700 6.02000 1.08400
H -0.63500 6.74400 -1.40500
H 0.66500 6.97000 -2.70400
H 1.04800 6.46600 -1.03600
H 0.60800 0.50100 -4.89100
H -0.69200 -2.15600 -4.54700
H -1.26700 0.74000 -6.12900
H -2.20400 0.71400 -4.59600
H -1.96700 -0.72000 -5.45300
H 1.35600 -1.75900 -5.96700
H 1.45200 -3.15700 -4.90200
H 2.71400 -0.52200 -4.79800
H 3.48700 -2.12100 -4.52900
H 2.49500 -1.30300 -3.24000
H 0.86700 -6.33300 -0.08400
H 0.40400 -5.64200 -1.68000
H -0.89100 -5.99900 -0.46300
H -1.28300 -3.58100 4.02800
H 0.69800 -4.47800 7.75500
H 0.83300 -2.61900 7.68000
H 2.00000 -3.75400 6.97600
Mg 8.94343 0.80832 0.67526
C 11.27866 -1.32989 2.36458
C 10.37998 3.42785 2.32118
C 6.62047 2.65697 -0.44447
C 7.00046 -2.02154 0.07324
N 10.60767 0.90912 2.12867
C 11.46063 0.03958 2.64897
C 12.61940 0.68095 3.45857
C 11.90665 2.06835 3.84064
C 10.92438 2.16756 2.67533
C 11.10959 1.99967 5.13266
C 13.90115 0.91530 2.58439
C 15.16726 1.24968 3.37616
H 16.44773 0.74695 2.88613
N 8.84145 2.78323 0.50821
C 9.51010 3.69753 1.24187
C 9.07240 5.01086 0.74414
C 7.96815 4.79882 -0.23073
C 7.74836 3.37496 -0.07447
C 9.74363 6.29486 1.13686
C 7.22344 5.72658 -1.14225
O 6.14125 5.36935 -1.72883
C 7.74725 7.09570 -1.25461
N 6.98129 0.41949 0.10855
C 6.20106 1.39252 -0.39382
C 4.93289 0.82428 -0.98480
C 5.13520 -0.76210 -0.99140
C 6.50884 -0.84495 -0.29022
C 3.64104 1.16924 -0.24419
C 4.95495 -1.48891 -2.35226
C 6.06156 -1.08911 -3.30144
N 9.16848 -1.32182 0.95793
C 8.22181 -2.32648 0.66035
C 8.78384 -3.60815 1.13350
C 10.01823 -3.25420 1.69872
C 10.20285 -1.84834 1.60393
C 8.14263 -4.87663 1.05646
C 11.20232 -3.74882 2.36355
O 11.64357 -4.86453 2.63598
C 12.01459 -2.50909 2.93774
C 13.45959 -2.68482 2.55877
O 13.80873 -2.65086 1.36564
O 14.21484 -2.64613 3.67164
C 15.65728 -2.80510 3.34622
H 10.60570 4.28677 2.95378
H 5.83488 3.23416 -0.93760
H 6.49970 -2.96231 -0.16524
H 12.89592 0.14481 4.35849
H 12.61220 2.89477 3.81602
H 11.05690 0.99322 5.52052
H 10.12015 2.36297 4.88758
H 11.51639 2.70351 5.86441
H 13.78236 1.84762 2.01746
H 14.08603 0.07340 1.94591
H 15.05363 1.03418 4.44555
H 15.32654 2.32997 3.33590
H 10.41495 6.15243 1.99270
H 8.96120 6.96251 1.51356
H 10.24857 6.77972 0.29864
H 7.76251 7.55840 -0.27067
H 7.13599 7.58071 -2.01814
H 8.78758 7.04544 -1.59491
H 4.79440 1.16512 -2.00351
H 4.41464 -1.26749 -0.33170
H 2.89167 1.67170 -0.88453
H 3.89057 1.78879 0.60695
H 3.13772 0.32513 0.22415
H 4.01705 -1.18418 -2.82304
H 4.93517 -2.57012 -2.26518
H 5.70066 -0.14349 -3.71694
H 6.18853 -1.83918 -4.07946
H 6.98936 -0.87735 -2.75739
H 8.89223 -5.58507 0.72978
H 7.29400 -4.85247 0.37601
H 7.83104 -5.00119 2.09697
H 11.87348 -2.49750 4.01918
H 16.02629 -3.65072 3.93481
H 16.11765 -1.81792 3.53931
H 15.91261 -3.11960 2.34106

