%nproc=24
%mem=175gb
#p cam-b3lyp/Def2SVP td=(nstates=5)

TDDFT excited states in gaussian

0 1
Mg 31.54156 2.84272 2.39132
C 33.96374 0.69623 3.94202
C 33.09649 5.45998 3.92972
C 29.16544 4.70235 1.40985
C 29.54538 0.02385 1.92768
N 33.29450 2.93878 3.73676
C 34.17253 2.06575 4.20710
C 35.38423 2.70282 4.93887
C 34.70637 4.09712 5.35754
C 33.65349 4.19761 4.25571
C 33.99164 4.04046 6.69742
C 36.61008 2.92373 3.98466
C 37.92569 3.25297 4.69354
H 39.16938 2.73872 4.12675
N 31.44272 4.81746 2.22044
C 32.16236 5.73055 2.90576
C 31.70319 7.04452 2.42949
C 30.53843 6.83556 1.52705
C 30.31922 5.41409 1.70442
C 32.40650 8.32561 2.77241
C 29.74424 7.76412 0.65916
O 28.62491 7.41173 0.14364
C 30.26926 9.12891 0.50681
N 29.54508 2.46510 1.95106
C 28.74145 3.44118 1.49350
C 27.43482 2.87910 0.98639
C 27.62551 1.29130 0.97558
C 29.03991 1.20212 1.58953
C 26.19444 3.23689 1.80483
C 27.35515 0.55913 -0.36736
C 28.40261 0.94637 -1.38631
N 31.76943 0.71244 2.67068
C 30.79911 -0.28690 2.43853
C 31.38104 -1.57021 2.88229
C 32.65090 -1.22229 3.36696
C 32.83875 0.18173 3.25323
C 30.72764 -2.83445 2.85246
C 33.87103 -1.72206 3.95872
O 34.32093 -2.83954 4.20886
C 34.72620 -0.48536 4.47412
C 36.14330 -0.67323 4.00608
O 36.41698 -0.64762 2.79321
O 36.96724 -0.63447 5.06909
C 38.38527 -0.80530 4.65456
H 33.36736 6.32037 4.54229
H 28.35436 5.28269 0.96395
H 29.02423 -0.91449 1.72615
H 35.71311 2.16914 5.82250
H 35.41457 4.91836 5.28423
H 33.95657 3.03633 7.09319
H 32.99124 4.40959 6.51303
H 34.44840 4.74497 7.39840
H 36.46224 3.85408 3.42134
H 36.74873 2.07741 3.34034
H 37.87803 3.04353 5.76909
H 38.08947 4.33189 4.63759
H 33.12929 8.18260 3.58513
H 31.65384 9.00066 3.19393
H 32.86104 8.80274 1.90154
H 30.34947 9.59631 1.48536
H 29.61452 9.61451 -0.21940
H 31.28577 9.06956 0.10211
H 27.23490 3.21591 -0.02341
H 26.94442 0.79430 1.68193
H 25.40974 3.74153 1.21014
H 26.50118 3.85882 2.63529
H 25.71582 2.39869 2.30836
H 26.39161 0.86822 -0.77992
H 27.33352 -0.52148 -0.27344
H 28.02275 1.89249 -1.78336
H 28.47533 0.19160 -2.16675
H 29.36419 1.15418 -0.90275
H 31.45039 -3.54981 2.48313
H 29.83811 -2.80758 2.22653
H 30.48123 -2.95167 3.91114
H 34.65342 -0.46745 5.56222
H 38.78477 -1.65063 5.22333
H 38.86357 0.17951 4.81308
H 38.57477 -1.12654 3.63705

