%nproc=24
%mem=175gb
#p cam-b3lyp/Def2SVP td=(nstates=5)

TDDFT excited states in gaussian

0 1
Mg 0.00000 0.00000 0.00000
C -0.21700 -2.21800 2.80100
C -1.25500 2.44200 2.02600
C -0.24500 1.85000 -2.56400
C 0.14600 -2.82400 -2.03700
N -0.61700 -0.00900 2.12600
C -0.59400 -0.90800 3.10500
C -0.93600 -0.30900 4.50200
C -1.77300 0.96400 4.03200
C -1.15500 1.16800 2.66000
C -3.26300 0.68500 3.86300
C 0.34500 0.11000 5.29900
C 0.12400 0.39700 6.78700
H 1.16800 0.03300 7.73300
N -0.18500 1.96100 -0.15200
C -0.70300 2.80000 0.77700
C -0.62000 4.15600 0.19300
C -0.18700 4.01500 -1.22500
C -0.21400 2.58300 -1.38000
C -0.88700 5.40600 0.97400
C 0.18100 5.01300 -2.27700
O 0.30300 4.69000 -3.50800
C 0.31000 6.41400 -1.83700
N -0.26500 -0.41300 -2.02900
C -0.27900 0.56900 -2.93700
C -0.19600 0.02400 -4.33200
C 0.12400 -1.53300 -4.18000
C 0.08600 -1.63200 -2.63500
C -1.45100 0.20500 -5.19700
C 1.37300 -2.07000 -4.92300
C 2.62600 -1.49000 -4.30600
N 0.15000 -2.14400 0.30300
C 0.17300 -3.13600 -0.68800
C 0.17300 -4.43800 0.00400
C 0.13300 -4.11100 1.35800
C 0.08300 -2.69500 1.50200
C 0.14900 -5.71500 -0.62300
C 0.09600 -4.62900 2.71600
O 0.20800 -5.74700 3.22100
C -0.25500 -3.42800 3.70100
C 0.71700 -3.48200 4.84800
O 1.93100 -3.25500 4.66900
O 0.03800 -3.55600 6.00300
C 0.94300 -3.58300 7.18300
H -1.85900 3.22000 2.49700
H -0.21800 2.45300 -3.47400
H 0.27600 -3.74700 -2.60500
H -1.55400 -0.94900 5.13200
H -1.58500 1.83100 4.66500
H -3.48400 -0.37700 3.96900
H -3.51100 1.02700 2.85800
H -3.85200 1.30100 4.54300
H 0.66900 1.09600 4.96600
H 1.13000 -0.63900 5.18900
H -0.84400 0.02600 7.12500
H 0.06200 1.47700 6.92100
H -1.34400 5.18600 1.93800
H -1.65100 5.96300 0.43200
H 0.00700 6.02000 1.08400
H -0.63500 6.74400 -1.40500
H 0.66500 6.97000 -2.70400
H 1.04800 6.46600 -1.03600
H 0.60800 0.50100 -4.89100
H -0.69200 -2.15600 -4.54700
H -1.26700 0.74000 -6.12900
H -2.20400 0.71400 -4.59600
H -1.96700 -0.72000 -5.45300
H 1.35600 -1.75900 -5.96700
H 1.45200 -3.15700 -4.90200
H 2.71400 -0.52200 -4.79800
H 3.48700 -2.12100 -4.52900
H 2.49500 -1.30300 -3.24000
H 0.86700 -6.33300 -0.08400
H 0.40400 -5.64200 -1.68000
H -0.89100 -5.99900 -0.46300
H -1.28300 -3.58100 4.02800
H 0.69800 -4.47800 7.75500
H 0.83300 -2.61900 7.68000
H 2.00000 -3.75400 6.97600
Mg 7.88999 0.70724 0.60653
C 5.65416 -0.49101 3.14510
C 8.89177 3.09534 2.82644
C 9.53507 2.06133 -1.74454
C 5.93526 -0.99510 -1.72301
N 7.27876 1.14298 2.68711
C 6.46516 0.58225 3.56914
C 6.58235 1.15493 5.00715
C 7.17478 2.60221 4.64207
C 7.85736 2.26033 3.31924
C 6.09985 3.64144 4.37029
C 7.57963 0.33406 5.89800
C 7.51104 0.64572 7.39464
H 7.72396 -0.44411 8.34301
N 9.38528 2.01055 0.67026
C 9.65739 2.88914 1.65784
C 10.84680 3.63423 1.21703
C 11.15658 3.23734 -0.18341
C 10.00011 2.41861 -0.48731
C 11.61359 4.55296 2.12334
C 12.29768 3.55402 -1.10199
O 12.24428 3.29515 -2.35617
C 13.44146 4.26072 -0.50715
N 7.63858 0.73355 -1.45707
C 8.52675 1.35338 -2.25386
C 8.29248 1.00704 -3.70492
C 7.20936 -0.16955 -3.69632
C 6.92639 -0.24194 -2.17972
C 7.79502 2.14990 -4.58968
C 7.58705 -1.47926 -4.44110
C 8.72044 -2.17389 -3.72117
N 6.22861 -0.67198 0.68159
C 5.54439 -1.24358 -0.41348
C 4.41707 -2.02385 0.13675
C 4.51071 -1.83177 1.52341
C 5.60610 -0.97479 1.81528
C 3.45194 -2.74141 -0.62467
C 3.92559 -2.15053 2.80588
O 3.03031 -2.90222 3.18951
C 4.56345 -1.19465 3.90397
C 4.96296 -2.04133 5.08127
O 5.86345 -2.89201 4.97142
O 4.37204 -1.56072 6.19041
C 4.74652 -2.36088 7.38679
H 9.11182 4.01950 3.36161
H 10.13529 2.41318 -2.58682
H 5.33826 -1.63396 -2.37732
H 5.64059 1.26033 5.53227
H 7.90750 2.92586 5.37674
H 5.11250 3.20446 4.35177
H 6.34202 4.07006 3.40661
H 6.17580 4.45992 5.09184
H 8.60471 0.66314 5.68434
H 7.45129 -0.71942 5.74202
H 6.60942 1.21258 7.65673
H 8.33379 1.31910 7.64693
H 11.05373 4.77237 3.04085
H 11.68649 5.51895 1.61207
H 12.62094 4.18941 2.33726
H 13.10264 5.20247 -0.08196
H 14.19247 4.31837 -1.29742
H 13.82907 3.66142 0.32424
H 9.20202 0.64403 -4.16757
H 6.26925 0.13854 -4.17705
H 8.44912 2.34413 -5.46060
H 7.70098 3.03813 -3.97916
H 6.78500 2.02791 -4.97720
H 7.95081 -1.25196 -5.44617
H 6.75748 -2.17026 -4.54747
H 9.60729 -1.65836 -4.10173
H 8.74153 -3.23263 -3.97151
H 8.67119 -1.99164 -2.64135
H 3.31003 -3.69306 -0.12998
H 3.77591 -2.87248 -1.65503
H 2.59801 -2.06327 -0.54598
H 3.80960 -0.45278 4.17027
H 3.81425 -2.69960 7.84921
H 5.39988 -1.70499 7.99233
H 5.25470 -3.30348 7.22034

