%nproc=24
%mem=175gb
#p cam-b3lyp/Def2SVP td=(nstates=5)

TDDFT excited states in gaussian

0 1
Mg 15.75787 1.42197 1.20358
C 17.30667 3.41822 3.75216
C 14.71702 -0.67262 3.68631
C 14.77212 -0.59006 -1.04308
C 17.84258 2.99737 -1.10245
N 16.03783 1.47323 3.39704
C 16.59144 2.31310 4.25871
C 16.29782 1.99220 5.74880
C 15.99066 0.42292 5.60083
C 15.51740 0.40235 4.14883
C 17.23227 -0.44634 5.71086
C 15.05054 2.77276 6.29380
C 14.89045 2.74724 7.81546
H 14.35845 3.93412 8.47936
N 14.47406 -0.08801 1.30542
C 14.15411 -0.81175 2.39863
C 13.18081 -1.81718 1.94482
C 13.07674 -1.73375 0.46261
C 14.14230 -0.79433 0.17601
C 12.39968 -2.67965 2.89318
C 12.17663 -2.40020 -0.53331
O 12.41904 -2.36189 -1.79132
C 11.05506 -3.17745 0.01391
N 16.37950 1.07506 -0.74977
C 15.74620 0.18011 -1.52817
C 16.18798 0.29962 -2.96725
C 17.07531 1.62838 -3.03533
C 17.06630 2.01557 -1.54020
C 16.99290 -0.87822 -3.51603
C 16.65821 2.70048 -4.07902
C 15.32709 3.30498 -3.69420
N 17.16758 3.05874 1.24557
C 17.95128 3.53722 0.17274
C 18.83942 4.58535 0.71594
C 18.52448 4.62823 2.08250
C 17.52593 3.66016 2.37443
C 19.81569 5.31280 -0.02151
C 18.81729 5.26495 3.34643
O 19.51369 6.21585 3.69936
C 18.13219 4.42266 4.50729
C 17.41135 5.38218 5.41405
O 16.43506 6.03142 4.99937
O 17.85354 5.21471 6.67373
C 17.16015 6.13685 7.61219
H 14.53598 -1.51150 4.35892
H 14.38966 -1.18362 -1.87667
H 18.45221 3.60388 -1.77563
H 17.13439 2.14566 6.41991
H 15.19007 0.11259 6.26724
H 18.13527 0.14441 5.75256
H 17.23109 -1.07389 4.82925
H 17.14293 -1.12497 6.56398
H 14.13762 2.23897 5.99986
H 15.05555 3.78813 5.94795
H 15.80039 2.40012 8.31990
H 14.13863 1.99719 8.07277
H 12.80956 -2.63328 3.90967
H 12.55701 -3.71865 2.58401
H 11.32932 -2.46365 2.87473
H 11.44038 -3.95623 0.66774
H 10.47505 -3.50281 -0.85188
H 10.44313 -2.51674 0.63810
H 15.33525 0.41239 -3.62546
H 18.12068 1.40731 -3.29640
H 16.54101 -1.33344 -4.41750
H 17.09892 -1.61468 -2.73059
H 18.02900 -0.65400 -3.76387
H 16.51786 2.23967 -5.05990
H 17.38780 3.49458 -4.19770
H 14.60514 2.58492 -4.09091
H 15.20298 4.28295 -4.15487
H 15.20537 3.32782 -2.60502
H 19.73056 6.34689 0.28492
H 19.66826 5.20164 -1.09374
H 20.72803 4.81719 0.32095
H 18.92215 3.88118 5.02916
H 17.93637 6.70791 8.13089
H 16.50687 5.49547 8.23316
H 16.56305 6.93294 7.18304

