%nproc=24
%mem=175gb
#p cam-b3lyp/Def2SVP td=(nstates=5)

TDDFT excited states in gaussian

0 1
Mg 7.88526 0.70277 0.60657
C 5.24544 1.44230 2.92249
C 10.08418 1.52904 3.07975
C 10.21774 0.49558 -1.53447
C 5.54614 1.04402 -1.95425
N 7.58236 1.38220 2.68957
C 6.53530 1.56761 3.47927
C 6.89042 1.82767 4.96783
C 8.38004 2.39213 4.76460
C 8.72568 1.70104 3.44718
C 8.42921 3.89473 4.54300
C 6.88646 0.51149 5.82203
C 6.91990 0.72767 7.33659
H 6.18110 -0.20010 8.18858
N 9.84315 0.49570 0.85634
C 10.56979 0.86492 1.93195
C 11.96346 0.51670 1.61476
C 12.02295 0.06309 0.19863
C 10.67096 0.36011 -0.23032
C 13.06394 0.55409 2.63503
C 13.11936 -0.52697 -0.63558
O 13.01753 -0.62550 -1.90945
C 14.35298 -0.90006 0.07187
N 7.93468 0.96844 -1.45482
C 9.06709 0.76614 -2.15099
C 8.79784 0.74635 -3.63676
C 7.20549 0.73617 -3.78472
C 6.81223 0.84676 -2.29525
C 9.37522 1.91633 -4.43310
C 6.58454 -0.40948 -4.63005
C 6.78156 -1.73387 -3.92822
N 5.74566 0.97525 0.48051
C 4.97181 1.11990 -0.69180
C 3.58420 1.39537 -0.26627
C 3.65201 1.41485 1.13498
C 4.99136 1.18893 1.55282
C 2.48058 1.63559 -1.13255
C 2.89706 1.58571 2.35546
O 1.70442 1.71615 2.62813
C 3.91802 1.73675 3.56426
C 3.46041 0.83116 4.67467
O 3.46661 -0.40358 4.52641
O 3.29873 1.55640 5.79640
C 2.85599 0.70024 6.92899
H 10.85263 1.98138 3.70725
H 10.96401 0.32260 -2.31334
H 4.73981 1.06540 -2.69048
H 6.27454 2.57182 5.45846
H 9.04209 2.05422 5.55761
H 7.44163 4.31942 4.44068
H 8.99932 4.03962 3.63468
H 9.00465 4.37465 5.33979
H 7.84407 -0.00713 5.68508
H 6.04954 -0.10780 5.56379
H 6.69203 1.76510 7.61001
H 7.94422 0.57720 7.68607
H 12.75251 1.08455 3.54334
H 13.86475 1.17495 2.21898
H 13.46492 -0.43683 2.85857
H 14.76447 -0.02371 0.56698
H 14.98325 -1.38541 -0.67584
H 14.10062 -1.61765 0.86054
H 9.19868 -0.15174 -4.09048
H 6.83607 1.64840 -4.27584
H 10.04655 1.59742 -5.25267
H 9.89640 2.57151 -3.74780
H 8.63689 2.58369 -4.87435
H 7.09531 -0.48941 -5.59279
H 5.52853 -0.27055 -4.83629
H 7.79671 -2.01917 -4.22004
H 6.05176 -2.46306 -4.27421
H 6.77492 -1.60709 -2.83939
H 1.64481 1.07549 -0.73471
H 2.70657 1.34132 -2.15534
H 2.38385 2.71967 -1.02918
H 3.91737 2.78527 3.86455
H 1.93028 1.13672 7.31660
H 3.71781 0.65076 7.62077
H 2.53391 -0.30855 6.69863

