%nproc=24
%mem=175gb
#p cam-b3lyp/Def2SVP td=(nstates=5)

TDDFT excited states in gaussian

0 1
Mg 31.53257 2.84751 2.40136
C 33.32943 1.67693 5.27887
C 28.90721 3.48206 4.48449
C 29.77200 3.46041 -0.16616
C 33.81271 1.09161 0.43579
N 31.27319 2.57335 4.58077
C 32.04608 2.17802 5.58112
C 31.43798 2.40305 6.99149
C 29.88485 2.42111 6.58361
C 30.01784 2.88818 5.13557
C 29.24647 1.04205 6.58395
C 31.88198 3.76917 7.62283
C 31.57921 3.91633 9.11562
H 32.52626 4.65226 9.94866
N 29.82075 3.83584 2.22402
C 28.88218 4.01519 3.17702
C 27.80655 4.79172 2.54127
C 28.11162 4.91469 1.08988
C 29.26109 4.03821 0.98695
C 26.67436 5.39998 3.31689
C 27.46676 5.68272 -0.02389
O 27.75353 5.45595 -1.25237
C 26.42186 6.64272 0.36091
N 31.62765 2.18054 0.43453
C 30.77338 2.64394 -0.49468
C 31.20437 2.23650 -1.88343
C 32.66371 1.60509 -1.71246
C 32.79273 1.67861 -0.17514
C 30.29621 1.23338 -2.59433
C 33.79980 2.21355 -2.57949
C 34.08422 3.63078 -2.13683
N 33.36641 1.75783 2.74438
C 34.14697 1.07787 1.78393
C 35.23410 0.39251 2.51253
C 34.99528 0.70492 3.85933
C 33.82918 1.51029 3.96464
C 36.23578 -0.43292 1.92822
C 35.45840 0.52774 5.21683
O 36.44796 0.01401 5.73701
C 34.32822 1.04443 6.20784
C 34.98104 1.92395 7.23876
O 35.50353 3.00331 6.90923
O 34.69158 1.45405 8.46586
C 35.30788 2.29967 9.52271
H 27.95079 3.50550 5.00757
H 29.26415 3.73198 -1.09450
H 34.62074 0.60457 -0.11425
H 31.62704 1.60569 7.70019
H 29.33095 3.14968 7.16991
H 29.97475 0.26100 6.74423
H 28.78195 0.93269 5.61271
H 28.43238 1.00369 7.31342
H 31.24851 4.57124 7.22267
H 32.92448 3.94964 7.44605
H 31.32316 2.95666 9.58083
H 30.67455 4.51871 9.22847
H 26.62637 5.00153 4.33784
H 25.74539 5.05800 2.84792
H 26.69480 6.49182 3.30569
H 25.62846 6.12014 0.88996
H 26.14399 7.15733 -0.56096
H 26.85068 7.36199 1.06758
H 31.26854 3.09798 -2.53676
H 32.67966 0.53794 -1.97847
H 29.92121 1.59858 -3.56905
H 29.47217 0.99266 -1.93588
H 30.74027 0.25605 -2.77549
H 33.48831 2.27165 -3.62532
H 34.72049 1.64049 -2.54905
H 33.32116 4.21166 -2.66352
H 35.08607 3.93188 -2.43629
H 33.90608 3.75058 -1.06185
H 37.17339 -0.16283 2.39558
H 36.27715 -0.30411 0.84865
H 35.86267 -1.42127 2.20969
H 33.85925 0.16745 6.65568
H 35.91616 1.63795 10.14705
H 34.46674 2.82351 10.01447
H 36.04325 3.03281 9.21256

