%nproc=24
%mem=175gb
#p cam-b3lyp/Def2SVP td=(nstates=5)

TDDFT excited states in gaussian

0 1
Mg 15.77380 1.41332 1.20200
C 15.98785 -1.22785 -1.21822
C 14.92999 -0.96249 3.49942
C 15.13869 3.75647 3.24496
C 15.50616 3.64455 -1.46177
N 15.52441 -0.77849 1.04062
C 15.69214 -1.67987 0.08473
C 15.61324 -3.15272 0.56852
C 14.72748 -2.92510 1.88856
C 15.10545 -1.47627 2.18970
C 13.23164 -2.98404 1.62713
C 17.02419 -3.74336 0.91834
C 17.05838 -5.26240 1.10021
H 18.24625 -5.98943 0.66104
N 15.60998 1.38373 3.17959
C 15.28096 0.32797 3.95314
C 15.27647 0.82862 5.33643
C 15.46828 2.30400 5.30193
C 15.39058 2.54663 3.87533
C 15.18109 -0.07750 6.52944
C 15.67326 3.32881 6.37614
O 15.57940 4.58429 6.13575
C 15.89468 2.81726 7.73658
N 15.16766 3.38496 0.94203
C 15.01398 4.20565 1.99596
C 14.84388 5.63870 1.55116
C 15.15844 5.64207 -0.01684
C 15.37852 4.12887 -0.23405
C 13.46495 6.25159 1.79464
C 16.25237 6.62682 -0.51307
C 17.60458 6.20486 0.01501
N 15.93247 1.29331 -0.94939
C 15.75973 2.34362 -1.87733
C 15.85099 1.75109 -3.22752
C 16.04910 0.38267 -2.98951
C 16.05901 0.13652 -1.58993
C 15.70466 2.45451 -4.45631
C 16.24149 -0.91115 -3.60409
O 16.40713 -1.30955 -4.75630
C 16.08400 -2.03006 -2.48622
C 17.23494 -2.98874 -2.62321
O 18.40005 -2.61292 -2.40438
O 16.75377 -4.23593 -2.77605
C 17.85764 -5.22420 -2.90503
H 14.43831 -1.59159 4.24196
H 15.02292 4.61787 3.90682
H 15.53087 4.28829 -2.34362
H 15.10372 -3.82688 -0.10947
H 15.04722 -3.57835 2.69626
H 13.00932 -3.05198 0.57257
H 12.82439 -2.07112 2.04159
H 12.78116 -3.80127 2.19768
H 17.30387 -3.42651 1.93133
H 17.75187 -3.45056 0.18665
H 16.15000 -5.74384 0.71807
H 17.04936 -5.48409 2.17016
H 14.88355 -1.09306 6.24045
H 14.34823 0.28584 7.14116
H 16.09071 -0.07536 7.13380
H 15.04604 2.20650 8.03531
H 16.10928 3.69597 8.34787
H 16.76887 2.15676 7.72401
H 15.55240 6.28611 2.05310
H 14.27407 5.91922 -0.60923
H 13.49870 7.17327 2.40575
H 12.83828 5.50587 2.26552
H 12.90121 6.49242 0.89497
H 16.06523 7.62957 -0.12112
H 16.30266 6.70767 -1.59378
H 17.62183 6.63490 1.02092
H 18.40166 6.61364 -0.60273
H 17.66312 5.11539 0.12123
H 16.48315 2.09452 -5.11575
H 15.77321 3.53034 -4.30916
H 14.69617 2.14254 -4.74073
H 15.12239 -2.51941 -2.64570
H 17.69189 -5.76808 -3.84013
H 17.84122 -5.81421 -1.96943
H 18.85915 -4.83972 -3.05865

