%nproc=24
%mem=175gb
#p cam-b3lyp/Def2SVP td=(nstates=5)

TDDFT excited states in gaussian

0 1
Mg 7.88683 0.71458 0.60749
C 6.89495 -1.59887 3.16545
C 5.97448 3.05382 2.19037
C 8.37606 2.64286 -1.86432
C 8.75849 -2.03556 -1.34766
N 6.64329 0.61946 2.43419
C 6.39145 -0.29550 3.35819
C 5.62025 0.23585 4.59612
C 4.91374 1.50564 3.91248
C 5.91939 1.77231 2.79434
C 3.57128 1.17909 3.27962
C 6.58128 0.66971 5.75809
C 5.89538 0.90638 7.10542
H 6.61400 0.54727 8.32488
N 7.68193 2.68256 0.45363
C 6.87850 3.47718 1.19144
C 7.07671 4.84034 0.67504
C 7.93826 4.76255 -0.53591
C 8.01679 3.32624 -0.71172
C 6.53989 6.05902 1.36792
C 8.57432 5.80815 -1.40098
O 9.08539 5.51965 -2.54046
C 8.49825 7.19439 -0.91721
N 8.28155 0.35813 -1.40236
C 8.50571 1.37444 -2.25370
C 9.03745 0.87217 -3.57482
C 9.35358 -0.67915 -3.34887
C 8.84393 -0.83270 -1.89901
C 8.10121 1.03130 -4.77254
C 10.79272 -1.15981 -3.68128
C 11.77674 -0.55659 -2.70495
N 8.02116 -1.42186 0.90008
C 8.38255 -2.39312 -0.05917
C 8.21714 -3.71607 0.57712
C 7.74527 -3.42125 1.86511
C 7.60585 -2.01485 2.01379
C 8.44635 -4.97425 -0.04783
C 7.32329 -3.98051 3.12917
O 7.30989 -5.10929 3.61848
C 6.63367 -2.83216 3.98481
C 7.20405 -2.88309 5.37570
O 8.40393 -2.62519 5.57662
O 6.19827 -3.01346 6.25989
C 6.71302 -3.05749 7.65450
H 5.22808 3.79509 2.47721
H 8.66196 3.26804 -2.71337
H 9.10265 -2.93754 -1.85822
H 4.87027 -0.44029 4.98873
H 4.87105 2.34951 4.59617
H 3.36784 0.11861 3.29095
H 3.62971 1.54227 2.26191
H 2.77713 1.75715 3.76077
H 6.95298 1.68251 5.55602
H 7.37826 -0.03820 5.87775
H 4.87655 0.50077 7.12616
H 5.75845 1.98198 7.24091
H 5.80802 5.79285 2.14053
H 5.96031 6.61926 0.62625
H 7.33001 6.70343 1.75921
H 7.45560 7.47579 -0.79003
H 9.08519 7.78340 -1.62462
H 8.96103 7.24465 0.07472
H 9.95475 1.38250 -3.84168
H 8.71636 -1.32032 -3.97552
H 8.54858 1.61043 -5.60232
H 7.18731 1.49936 -4.43158
H 7.73732 0.09913 -5.20131
H 11.08816 -0.81232 -4.67432
H 10.90036 -2.23932 -3.67262
H 11.96990 0.43329 -3.12913
H 12.68668 -1.15168 -2.66124
H 11.31542 -0.40949 -1.72149
H 8.98060 -5.58471 0.66799
H 9.00757 -4.86217 -0.97317
H 7.41623 -5.29280 -0.22855
H 5.55891 -3.01760 3.97603
H 6.33372 -3.97936 8.10611
H 6.40011 -2.10336 8.11869
H 7.78123 -3.17913 7.79086

