%nproc=24
%mem=175gb
#p cam-b3lyp/Def2SVP td=(nstates=5)

TDDFT excited states in gaussian

0 1
Mg 31.53804 2.83417 2.40312
C 28.95577 2.33359 4.84450
C 33.15220 4.74612 4.72121
C 33.60060 3.66193 0.13859
C 29.23388 1.87172 -0.02797
N 31.02053 3.39316 4.47965
C 30.04375 3.09336 5.32249
C 30.28287 3.57057 6.78011
C 31.30574 4.77050 6.47555
C 31.89412 4.26238 5.16090
C 30.61460 6.09725 6.20832
C 30.94649 2.46217 7.67066
C 30.92636 2.74757 9.17395
H 30.75941 1.62534 10.09329
N 33.35983 3.60829 2.54597
C 33.85617 4.33793 3.56702
C 35.23199 4.68705 3.18051
C 35.45171 4.24383 1.77695
C 34.10995 3.83048 1.41793
C 36.21367 5.30329 4.13444
C 36.66558 4.21094 0.89851
O 36.57778 4.00832 -0.36405
C 37.95070 4.51551 1.54443
N 31.37791 2.98133 0.33551
C 32.44091 3.31237 -0.41840
C 32.16091 3.08687 -1.88508
C 30.76755 2.30393 -1.94104
C 30.42429 2.29028 -0.43526
C 32.07164 4.34632 -2.74660
C 30.74724 0.95794 -2.71601
C 31.58510 -0.06898 -1.98881
N 29.53019 2.03639 2.39230
C 28.74074 1.72856 1.26266
C 27.40930 1.32443 1.75902
C 27.51017 1.44825 3.15293
C 28.80613 1.91715 3.49954
C 26.29633 0.95775 0.95096
C 26.81161 1.29907 4.40930
O 25.71526 0.85376 4.74611
C 27.67568 1.98647 5.55266
C 27.75338 1.03263 6.71312
O 28.35006 -0.05266 6.60035
O 27.30230 1.64879 7.82093
C 27.36993 0.74652 9.00124
H 33.62864 5.54490 5.29029
H 34.30865 3.82844 -0.67653
H 28.49143 1.46348 -0.71702
H 29.40239 3.95132 7.28365
H 32.07700 4.83535 7.23865
H 29.54178 5.98824 6.15068
H 31.01025 6.45029 5.26499
H 30.91504 6.83624 6.95663
H 32.02978 2.46190 7.49395
H 30.50426 1.50391 7.47882
H 30.23567 3.56017 9.43002
H 31.90780 3.12729 9.46824
H 35.71795 5.66566 5.04348
H 36.59902 6.20987 3.65541
H 37.05139 4.64099 4.36303
H 37.90518 5.50654 1.98967
H 38.70936 4.35452 0.77606
H 38.10539 3.80791 2.36661
H 32.92901 2.46989 -2.33502
H 29.98573 2.89841 -2.43620
H 32.78317 4.34693 -3.59383
H 32.23586 5.20666 -2.11148
H 31.08726 4.55166 -3.16377
H 31.19764 1.08283 -3.70378
H 29.74887 0.56046 -2.86521
H 32.60034 0.15439 -2.33008
H 31.28649 -1.07652 -2.27121
H 31.55763 0.09636 -0.90550
H 25.85038 0.08654 1.41208
H 26.59901 0.75487 -0.07422
H 25.69163 1.86527 1.02847
H 27.17936 2.91953 5.82219
H 26.36336 0.70352 9.42862
H 28.17287 1.15452 9.64355
H 27.56729 -0.30336 8.81889

