%nproc=24
%mem=175gb
#p cam-b3lyp/Def2SVP td=(nstates=5)

TDDFT excited states in gaussian

0 1
Mg 15.77344 1.42245 1.20485
C 14.93103 -0.72529 3.95379
C 15.10986 4.06335 3.25910
C 16.07065 3.32874 -1.31410
C 15.26230 -1.30571 -0.90265
N 15.11399 1.52762 3.31348
C 14.88541 0.64709 4.27617
C 14.67030 1.27136 5.68101
C 14.18420 2.73186 5.22328
C 14.87060 2.80203 3.86071
C 12.68294 2.82622 5.00725
C 15.99862 1.34268 6.51316
C 15.81029 1.65282 7.99980
H 16.71088 1.02337 8.96167
N 16.09073 3.37897 1.10527
C 15.77982 4.30232 2.03911
C 16.19778 5.59704 1.47950
C 16.62987 5.38208 0.07174
C 16.25263 3.99483 -0.11087
C 16.23752 6.85944 2.29081
C 17.26437 6.28049 -0.94633
O 17.33560 5.95188 -2.18317
C 17.71584 7.59583 -0.46932
N 15.47593 1.12524 -0.83119
C 15.72759 2.10508 -1.71692
C 15.70754 1.57927 -3.13237
C 15.62872 -0.01240 -2.99834
C 15.52221 -0.13203 -1.46220
C 14.55730 2.07346 -4.00937
C 16.72445 -0.83536 -3.72961
C 18.06929 -0.59361 -3.08282
N 15.38307 -0.68735 1.45863
C 15.17675 -1.64501 0.44157
C 14.83359 -2.91894 1.10624
C 14.84159 -2.60594 2.47389
C 15.14696 -1.22905 2.64828
C 14.51913 -4.14179 0.44907
C 14.65070 -3.12477 3.80920
O 14.46034 -4.24198 4.28810
C 14.57585 -1.90113 4.82088
C 15.47395 -2.20771 5.98790
O 16.70452 -2.29725 5.83202
O 14.76013 -2.12937 7.12575
C 15.61007 -2.41467 8.31235
H 14.71063 4.95405 3.74505
H 16.27067 3.91621 -2.21319
H 15.18467 -2.22593 -1.48560
H 13.90223 0.79384 6.27753
H 14.57097 3.50234 5.88520
H 12.20358 1.86154 5.08308
H 12.55385 3.23581 4.01397
H 12.24856 3.55838 5.69397
H 16.56608 2.23072 6.20639
H 16.56707 0.43989 6.40156
H 14.76680 1.53524 8.31643
H 16.02206 2.71235 8.16279
H 15.70641 6.74222 3.24348
H 15.65409 7.60881 1.74499
H 17.25239 7.23678 2.43332
H 16.87165 8.13642 -0.04794
H 18.22196 8.05710 -1.31958
H 18.43194 7.44530 0.34626
H 16.61824 1.84317 -3.65589
H 14.68957 -0.40998 -3.41037
H 14.89825 2.57191 -4.93640
H 13.94311 2.74268 -3.42162
H 13.84344 1.30817 -4.30925
H 16.81566 -0.50631 -4.76767
H 16.52490 -1.90162 -3.74612
H 18.40432 0.33705 -3.55049
H 18.75180 -1.41268 -3.30042
H 17.96083 -0.40243 -2.00889
H 15.03969 -4.92529 0.98354
H 14.80786 -4.11527 -0.59960
H 13.43331 -4.15759 0.57560
H 13.53408 -1.79003 5.12412
H 15.13060 -3.23212 8.85968
H 15.71800 -1.44926 8.84158
H 16.59583 -2.82850 8.13494

