%nproc=24
%mem=175gb
#p cam-b3lyp/Def2SVP td=(nstates=5)

TDDFT excited states in gaussian

0 1
Mg 0.00000 0.00000 0.00000
C -0.21700 -2.21800 2.80100
C -1.25500 2.44200 2.02600
C -0.24500 1.85000 -2.56400
C 0.14600 -2.82400 -2.03700
N -0.61700 -0.00900 2.12600
C -0.59400 -0.90800 3.10500
C -0.93600 -0.30900 4.50200
C -1.77300 0.96400 4.03200
C -1.15500 1.16800 2.66000
C -3.26300 0.68500 3.86300
C 0.34500 0.11000 5.29900
C 0.12400 0.39700 6.78700
H 1.16800 0.03300 7.73300
N -0.18500 1.96100 -0.15200
C -0.70300 2.80000 0.77700
C -0.62000 4.15600 0.19300
C -0.18700 4.01500 -1.22500
C -0.21400 2.58300 -1.38000
C -0.88700 5.40600 0.97400
C 0.18100 5.01300 -2.27700
O 0.30300 4.69000 -3.50800
C 0.31000 6.41400 -1.83700
N -0.26500 -0.41300 -2.02900
C -0.27900 0.56900 -2.93700
C -0.19600 0.02400 -4.33200
C 0.12400 -1.53300 -4.18000
C 0.08600 -1.63200 -2.63500
C -1.45100 0.20500 -5.19700
C 1.37300 -2.07000 -4.92300
C 2.62600 -1.49000 -4.30600
N 0.15000 -2.14400 0.30300
C 0.17300 -3.13600 -0.68800
C 0.17300 -4.43800 0.00400
C 0.13300 -4.11100 1.35800
C 0.08300 -2.69500 1.50200
C 0.14900 -5.71500 -0.62300
C 0.09600 -4.62900 2.71600
O 0.20800 -5.74700 3.22100
C -0.25500 -3.42800 3.70100
C 0.71700 -3.48200 4.84800
O 1.93100 -3.25500 4.66900
O 0.03800 -3.55600 6.00300
C 0.94300 -3.58300 7.18300
H -1.85900 3.22000 2.49700
H -0.21800 2.45300 -3.47400
H 0.27600 -3.74700 -2.60500
H -1.55400 -0.94900 5.13200
H -1.58500 1.83100 4.66500
H -3.48400 -0.37700 3.96900
H -3.51100 1.02700 2.85800
H -3.85200 1.30100 4.54300
H 0.66900 1.09600 4.96600
H 1.13000 -0.63900 5.18900
H -0.84400 0.02600 7.12500
H 0.06200 1.47700 6.92100
H -1.34400 5.18600 1.93800
H -1.65100 5.96300 0.43200
H 0.00700 6.02000 1.08400
H -0.63500 6.74400 -1.40500
H 0.66500 6.97000 -2.70400
H 1.04800 6.46600 -1.03600
H 0.60800 0.50100 -4.89100
H -0.69200 -2.15600 -4.54700
H -1.26700 0.74000 -6.12900
H -2.20400 0.71400 -4.59600
H -1.96700 -0.72000 -5.45300
H 1.35600 -1.75900 -5.96700
H 1.45200 -3.15700 -4.90200
H 2.71400 -0.52200 -4.79800
H 3.48700 -2.12100 -4.52900
H 2.49500 -1.30300 -3.24000
H 0.86700 -6.33300 -0.08400
H 0.40400 -5.64200 -1.68000
H -0.89100 -5.99900 -0.46300
H -1.28300 -3.58100 4.02800
H 0.69800 -4.47800 7.75500
H 0.83300 -2.61900 7.68000
H 2.00000 -3.75400 6.97600
Mg 10.51086 0.95498 0.80448
C 12.30772 -0.21561 3.68199
C 7.88550 1.58953 2.88761
C 8.75029 1.56788 -1.76305
C 12.79100 -0.80092 -1.16109
N 10.25148 0.68081 2.98388
C 11.02437 0.28549 3.98423
C 10.41627 0.51051 5.39460
C 8.86315 0.52857 4.98673
C 8.99613 0.99564 3.53868
C 8.22476 -0.85048 4.98706
C 10.86028 1.87663 6.02594
C 10.55750 2.02379 7.51873
H 11.50456 2.75973 8.35178
N 8.79904 1.94331 0.62713
C 7.86048 2.12266 1.58014
C 6.78484 2.89918 0.94439
C 7.08992 3.02216 -0.50700
C 8.23939 2.14568 -0.60994
C 5.65265 3.50745 1.72001
C 6.44506 3.79018 -1.62077
O 6.73183 3.56341 -2.84926
C 5.40015 4.75018 -1.23598
N 10.60594 0.28800 -1.16236
C 9.75168 0.75140 -2.09156
C 10.18266 0.34397 -3.48031
C 11.64200 -0.28744 -3.30934
C 11.77102 -0.21392 -1.77202
C 9.27450 -0.65915 -4.19122
C 12.77809 0.32102 -4.17637
C 13.06252 1.73825 -3.73371
N 12.34471 -0.13470 1.14749
C 13.12526 -0.81467 0.18704
C 14.21239 -1.50002 0.91565
C 13.97358 -1.18761 2.26244
C 12.80748 -0.38224 2.36775
C 15.21407 -2.32546 0.33134
C 14.43670 -1.36479 3.61995
O 15.42626 -1.87853 4.14012
C 13.30651 -0.84810 4.61096
C 13.95933 0.03142 5.64187
O 14.48183 1.11078 5.31235
O 13.66987 -0.43848 6.86898
C 14.28617 0.40714 7.92582
H 6.92909 1.61297 3.41069
H 8.24245 1.83945 -2.69139
H 13.59904 -1.28797 -1.71113
H 10.60533 -0.28684 6.10330
H 8.30925 1.25714 5.57303
H 8.95305 -1.63154 5.14735
H 7.76024 -0.95984 4.01582
H 7.41067 -0.88884 5.71653
H 10.22680 2.67871 5.62579
H 11.90278 2.05711 5.84917
H 10.30146 1.06412 7.98395
H 9.65284 2.62618 7.63159
H 5.60467 3.10899 2.74096
H 4.72369 3.16547 1.25103
H 5.67309 4.59929 1.70880
H 4.60676 4.22761 -0.70692
H 5.12229 5.26479 -2.15785
H 5.82897 5.46945 -0.52931
H 10.24684 1.20544 -4.13365
H 11.65796 -1.35460 -3.57535
H 8.89951 -0.29396 -5.16594
H 8.45047 -0.89987 -3.53276
H 9.71857 -1.63649 -4.37238
H 12.46660 0.37912 -5.22220
H 13.69878 -0.25204 -4.14593
H 12.29945 2.31913 -4.26040
H 14.06436 2.03934 -4.03318
H 12.88438 1.85805 -2.65874
H 16.15169 -2.05536 0.79869
H 15.25545 -2.19665 -0.74823
H 14.84096 -3.31381 0.61280
H 12.83755 -1.72508 5.05880
H 14.89446 -0.25458 8.55016
H 13.44504 0.93098 8.41759
H 15.02154 1.14028 7.61568

