%nproc=24
%mem=175gb
#p cam-b3lyp/Def2SVP td=(nstates=5)

TDDFT excited states in gaussian

0 1
Mg 0.00000 0.00000 0.00000
C -0.21700 -2.21800 2.80100
C -1.25500 2.44200 2.02600
C -0.24500 1.85000 -2.56400
C 0.14600 -2.82400 -2.03700
N -0.61700 -0.00900 2.12600
C -0.59400 -0.90800 3.10500
C -0.93600 -0.30900 4.50200
C -1.77300 0.96400 4.03200
C -1.15500 1.16800 2.66000
C -3.26300 0.68500 3.86300
C 0.34500 0.11000 5.29900
C 0.12400 0.39700 6.78700
H 1.16800 0.03300 7.73300
N -0.18500 1.96100 -0.15200
C -0.70300 2.80000 0.77700
C -0.62000 4.15600 0.19300
C -0.18700 4.01500 -1.22500
C -0.21400 2.58300 -1.38000
C -0.88700 5.40600 0.97400
C 0.18100 5.01300 -2.27700
O 0.30300 4.69000 -3.50800
C 0.31000 6.41400 -1.83700
N -0.26500 -0.41300 -2.02900
C -0.27900 0.56900 -2.93700
C -0.19600 0.02400 -4.33200
C 0.12400 -1.53300 -4.18000
C 0.08600 -1.63200 -2.63500
C -1.45100 0.20500 -5.19700
C 1.37300 -2.07000 -4.92300
C 2.62600 -1.49000 -4.30600
N 0.15000 -2.14400 0.30300
C 0.17300 -3.13600 -0.68800
C 0.17300 -4.43800 0.00400
C 0.13300 -4.11100 1.35800
C 0.08300 -2.69500 1.50200
C 0.14900 -5.71500 -0.62300
C 0.09600 -4.62900 2.71600
O 0.20800 -5.74700 3.22100
C -0.25500 -3.42800 3.70100
C 0.71700 -3.48200 4.84800
O 1.93100 -3.25500 4.66900
O 0.03800 -3.55600 6.00300
C 0.94300 -3.58300 7.18300
H -1.85900 3.22000 2.49700
H -0.21800 2.45300 -3.47400
H 0.27600 -3.74700 -2.60500
H -1.55400 -0.94900 5.13200
H -1.58500 1.83100 4.66500
H -3.48400 -0.37700 3.96900
H -3.51100 1.02700 2.85800
H -3.85200 1.30100 4.54300
H 0.66900 1.09600 4.96600
H 1.13000 -0.63900 5.18900
H -0.84400 0.02600 7.12500
H 0.06200 1.47700 6.92100
H -1.34400 5.18600 1.93800
H -1.65100 5.96300 0.43200
H 0.00700 6.02000 1.08400
H -0.63500 6.74400 -1.40500
H 0.66500 6.97000 -2.70400
H 1.04800 6.46600 -1.03600
H 0.60800 0.50100 -4.89100
H -0.69200 -2.15600 -4.54700
H -1.26700 0.74000 -6.12900
H -2.20400 0.71400 -4.59600
H -1.96700 -0.72000 -5.45300
H 1.35600 -1.75900 -5.96700
H 1.45200 -3.15700 -4.90200
H 2.71400 -0.52200 -4.79800
H 3.48700 -2.12100 -4.52900
H 2.49500 -1.30300 -3.24000
H 0.86700 -6.33300 -0.08400
H 0.40400 -5.64200 -1.68000
H -0.89100 -5.99900 -0.46300
H -1.28300 -3.58100 4.02800
H 0.69800 -4.47800 7.75500
H 0.83300 -2.61900 7.68000
H 2.00000 -3.75400 6.97600
Mg 7.88596 0.71246 0.58900
C 10.49712 -1.66239 -0.05982
C 10.20372 3.16793 0.10599
C 5.72755 2.80999 1.59352
C 6.10760 -1.86831 2.11305
N 10.03978 0.63696 0.09138
C 10.91016 -0.32028 -0.19232
C 12.27762 0.18980 -0.72091
C 12.24942 1.66181 -0.07959
C 10.73776 1.85763 0.01649
C 12.82849 1.71782 1.32428
C 12.32902 0.24693 -2.28811
C 13.72746 0.43885 -2.87912
H 14.04839 -0.22745 -4.13829
N 7.80132 2.68113 0.35288
C 8.83681 3.52079 0.14311
C 8.25151 4.86771 0.05697
C 6.80579 4.77356 0.39718
C 6.72491 3.39102 0.82396
C 9.03275 6.06698 -0.39562
C 5.68459 5.76735 0.35853
O 4.55842 5.53426 0.92442
C 5.97520 7.05904 -0.28066
N 6.26129 0.55673 1.87684
C 5.45360 1.60805 2.10108
C 4.20369 1.18842 2.83730
C 4.22772 -0.41061 2.84788
C 5.59209 -0.64773 2.16403
C 4.07047 1.70462 4.26984
C 2.97886 -1.13702 2.27746
C 2.87661 -0.89568 0.78861
N 8.12739 -1.42304 0.81121
C 7.27835 -2.30935 1.50955
C 7.91796 -3.64064 1.47791
C 9.11534 -3.42997 0.77764
C 9.22454 -2.05973 0.41707
C 7.41100 -4.82185 2.08935
C 10.31679 -4.05305 0.27070
O 10.73254 -5.20887 0.20012
C 11.32487 -2.91140 -0.18405
C 11.84998 -3.27125 -1.54688
O 11.08809 -3.30459 -2.52923
O 13.19449 -3.30337 -1.50667
C 13.76247 -3.64519 -2.83798
H 10.89605 4.00513 0.19903
H 4.90214 3.46941 1.87162
H 5.56992 -2.74491 2.48067
H 13.13842 -0.35803 -0.35666
H 12.68677 2.39444 -0.75289
H 13.05604 0.73354 1.70581
H 12.07343 2.19512 1.93511
H 13.69808 2.38086 1.34719
H 11.85222 1.17516 -2.62840
H 11.87217 -0.62403 -2.71630
H 14.51615 0.26058 -2.13808
H 13.84794 1.49029 -3.15110
H 10.10986 5.86031 -0.41819
H 8.91939 6.83332 0.37881
H 8.67454 6.46900 -1.34574
H 6.80759 7.53610 0.23120
H 5.02702 7.60010 -0.29053
H 6.30281 6.87426 -1.30981
H 3.31615 1.52309 2.31446
H 4.31438 -0.81007 3.86903
H 3.14265 2.28248 4.44104
H 4.94048 2.30579 4.49832
H 4.10970 0.93849 5.04231
H 2.06760 -0.72873 2.72137
H 2.97758 -2.20559 2.46489
H 2.38221 0.07859 0.72992
H 2.27801 -1.67122 0.31505
H 3.87021 -0.78880 0.33808
H 7.54350 -5.62361 1.37512
H 6.36613 -4.70716 2.37016
H 8.06600 -4.88609 2.96235
H 12.11999 -2.86071 0.56078
H 14.40750 -4.51775 -2.69566
H 14.24241 -2.71848 -3.20489
H 13.07885 -4.00894 -3.59613

