%nproc=24
%mem=175gb
#p cam-b3lyp/Def2SVP td=(nstates=5)

TDDFT excited states in gaussian

0 1
Mg 31.52515 2.84372 2.40110
C 33.52685 4.20665 5.04963
C 29.80351 1.12203 4.78990
C 30.04337 1.28485 0.06836
C 34.07240 3.74464 0.19983
N 31.73195 2.75866 4.60162
C 32.48818 3.36696 5.50297
C 32.05890 3.12097 6.97429
C 31.28702 1.72767 6.76983
C 30.88060 1.88590 5.30611
C 32.19465 0.51430 6.88502
C 31.09603 4.23773 7.51068
C 30.88387 4.23046 9.02617
H 30.72233 5.50925 9.71251
N 29.83482 1.80406 2.42277
C 29.26961 1.19183 3.48436
C 28.04936 0.54747 2.97452
C 28.02700 0.69080 1.49341
C 29.33990 1.25971 1.26379
C 27.00791 -0.05062 3.87512
C 26.99965 0.35759 0.45431
O 27.28497 0.34587 -0.79520
C 25.67472 -0.04540 0.94791
N 32.07566 2.36323 0.45472
C 31.22381 1.72548 -0.36721
C 31.72992 1.73304 -1.78995
C 32.98626 2.72257 -1.79378
C 33.04615 3.06134 -0.28811
C 32.14970 0.37580 -2.35392
C 32.95694 3.89327 -2.81422
C 31.86546 4.87210 -2.44549
N 33.36941 3.96179 2.53033
C 34.29889 4.19676 1.49354
C 35.44833 4.90619 2.09181
C 35.11545 5.01523 3.45041
C 33.85720 4.39822 3.68621
C 36.62629 5.31094 1.40282
C 35.54724 5.50263 4.74064
O 36.49092 6.18312 5.14081
C 34.59603 4.88940 5.85668
C 34.17641 6.00539 6.77375
O 33.46339 6.93394 6.35421
O 34.50178 5.68217 8.03867
C 34.09562 6.75343 8.98696
H 29.34913 0.36634 5.43126
H 29.52498 0.85703 -0.79287
H 34.86232 4.14667 -0.43819
H 32.87844 2.99322 7.67129
H 30.40738 1.66648 7.40532
H 33.23404 0.79512 6.96842
H 32.02977 -0.06294 5.98466
H 31.87078 -0.12137 7.71410
H 30.07346 4.01955 7.17677
H 31.42646 5.20875 7.19672
H 31.62414 3.60772 9.54303
H 29.92870 3.74496 9.24052
H 27.37699 -0.15536 4.90285
H 26.84691 -1.08035 3.53808
H 26.05801 0.48677 3.83562
H 25.77784 -0.91908 1.58706
H 25.05256 -0.15636 0.05770
H 25.27595 0.75887 1.57620
H 30.97686 2.11859 -2.46625
H 33.92043 2.19410 -2.03439
H 31.61040 0.10246 -3.28048
H 31.99594 -0.37393 -1.58920
H 33.21222 0.27319 -2.56774
H 32.71472 3.51978 -3.81221
H 33.89986 4.42455 -2.88927
H 30.97034 4.41987 -2.88291
H 32.06554 5.85003 -2.87869
H 31.71953 4.90817 -1.35965
H 36.85449 6.31370 1.73884
H 36.48853 5.27396 0.32419
H 37.32849 4.54979 1.75329
H 35.16159 4.11873 6.38182
H 34.99209 7.04460 9.54306
H 33.25523 6.33290 9.57061
H 33.78887 7.70437 8.56735

