%nproc=24
%mem=175gb
#p cam-b3lyp/Def2SVP td=(nstates=5)

TDDFT excited states in gaussian

0 1
Mg 7.89106 0.70266 0.59894
C 8.02937 -0.21394 -2.86802
C 7.25088 -2.57641 1.28629
C 7.31784 1.54724 3.60319
C 7.40401 3.99524 -0.43423
N 7.69100 -1.07119 -0.70708
C 7.82485 -1.30920 -2.00314
C 7.81457 -2.81368 -2.38522
C 7.00417 -3.37787 -1.11881
C 7.36078 -2.29783 -0.09950
C 5.49741 -3.36954 -1.31616
C 9.25930 -3.42132 -2.45980
C 9.34490 -4.79674 -3.12514
H 10.52315 -5.10874 -3.92941
N 7.84751 -0.39096 2.25443
C 7.59398 -1.71304 2.34987
C 7.65945 -2.03272 3.78434
C 7.80938 -0.76066 4.54204
C 7.63945 0.20395 3.47398
C 7.66032 -3.44066 4.30502
C 8.05127 -0.46161 5.99058
O 7.90963 0.71982 6.46700
C 8.36781 -1.60946 6.85299
N 7.21796 2.46985 1.46283
C 7.10619 2.58812 2.79754
C 6.87142 4.02451 3.20012
C 7.09076 4.88484 1.86997
C 7.33767 3.73840 0.86493
C 5.49379 4.33473 3.78517
C 8.12614 6.04046 1.94200
C 9.51849 5.47618 2.11043
N 7.92301 1.76310 -1.28322
C 7.66672 3.13578 -1.49333
C 7.69227 3.36508 -2.95251
C 7.94082 2.09548 -3.49549
C 8.04157 1.13866 -2.44962
C 7.45347 4.60814 -3.60357
C 8.13030 1.34530 -4.71616
O 8.23681 1.63615 -5.90687
C 8.07035 -0.20507 -4.37097
C 9.23613 -0.87621 -5.04405
O 10.40186 -0.61288 -4.70002
O 8.78008 -1.87151 -5.82621
C 9.90016 -2.57444 -6.50675
H 6.82179 -3.53132 1.59110
H 7.21920 1.91196 4.62824
H 7.35837 5.01151 -0.83144
H 7.28331 -3.04634 -3.30033
H 7.38930 -4.34352 -0.80169
H 5.21387 -2.87389 -2.23272
H 5.09164 -2.84482 -0.46113
H 5.10409 -4.38853 -1.25892
H 9.59092 -3.68184 -1.44644
H 9.93351 -2.74261 -2.94500
H 8.42834 -5.04744 -3.67286
H 9.40627 -5.55734 -2.34301
H 7.37313 -4.15777 3.52612
H 6.85642 -3.50805 5.04601
H 8.60431 -3.71278 4.78198
H 7.55531 -2.33069 6.80691
H 8.59531 -1.18491 7.83272
H 9.25697 -2.11123 6.45520
H 7.59135 4.33988 3.94533
H 6.16524 5.38724 1.55242
H 5.53967 4.78566 4.79445
H 4.91675 3.41973 3.80337
H 4.87066 4.98879 3.17761
H 7.93625 6.66500 2.81838
H 8.10907 6.69044 1.07354
H 9.58481 5.30042 3.18829
H 10.26571 6.19536 1.78107
H 9.61238 4.50458 1.61161
H 8.20016 4.70094 -4.38096
H 7.50202 5.43947 -2.90335
H 6.43837 4.44236 -3.97418
H 7.11429 -0.58468 -4.73349
H 9.69297 -2.54069 -7.58082
H 9.95589 -3.57379 -6.03566
H 10.87998 -2.11322 -6.46578

