%nproc=24
%mem=175gb
#p cam-b3lyp/Def2SVP td=(nstates=5)

TDDFT excited states in gaussian

0 1
Mg 13.14521 1.18311 1.00630
C 13.17584 -2.27422 1.96807
C 11.96166 1.88631 4.12709
C 12.67994 4.17194 0.04825
C 13.22403 0.11740 -2.31089
N 12.67147 -0.11194 2.73566
C 12.78126 -1.40400 3.00560
C 12.52700 -1.77453 4.49140
C 11.61758 -0.51589 4.90088
C 12.13459 0.50018 3.88453
C 10.13578 -0.73554 4.64526
C 13.85198 -1.82305 5.33050
C 13.71741 -2.47637 6.70775
H 14.83828 -3.26072 7.21856
N 12.89913 2.84620 2.06088
C 12.42887 2.94813 3.32173
C 12.42142 4.38583 3.63336
C 12.76990 5.13579 2.39609
C 12.77629 4.05790 1.42748
C 12.18215 4.91736 5.01671
C 13.03872 6.58538 2.12661
O 13.08840 7.05050 0.93328
C 13.14927 7.46124 3.30225
N 12.76270 2.02326 -0.85654
C 12.65435 3.35521 -1.00513
C 12.65541 3.74314 -2.46455
C 13.03187 2.40975 -3.26325
C 13.09880 1.41738 -2.08168
C 11.34054 4.30536 -3.00439
C 14.24332 2.48812 -4.23223
C 15.52060 2.68146 -3.44702
N 13.37737 -0.70652 -0.01519
C 13.35480 -0.93102 -1.40916
C 13.43736 -2.39140 -1.61634
C 13.47937 -2.92080 -0.31771
C 13.40635 -1.86617 0.63199
C 13.41643 -3.05552 -2.87516
C 13.55818 -4.13269 0.46576
O 13.72721 -5.32391 0.20858
C 13.23768 -3.77642 1.98126
C 14.28503 -4.42699 2.84285
O 15.47359 -4.06784 2.77264
O 13.68086 -5.20808 3.75677
C 14.67797 -5.86653 4.64222
H 11.37632 2.19213 4.99469
H 12.62946 5.19256 -0.33809
H 13.35263 -0.28831 -3.31664
H 11.97674 -2.69555 4.64213
H 11.83320 -0.18565 5.91371
H 9.95045 -1.66000 4.11880
H 9.81120 0.10931 4.05203
H 9.57838 -0.67622 5.58448
H 14.12237 -0.80292 5.63208
H 14.63568 -2.30348 4.77767
H 12.77934 -3.03562 6.80880
H 13.64155 -1.68756 7.46010
H 11.79052 4.13988 5.68421
H 11.36842 5.64689 4.94263
H 13.06161 5.41031 5.43649
H 12.22921 7.40875 3.87949
H 13.43091 8.44091 2.91136
H 13.94824 7.08053 3.94826
H 13.40767 4.49644 -2.66391
H 12.20665 2.07469 -3.90868
H 11.44707 5.31168 -3.45166
H 10.61972 4.32211 -2.19774
H 10.84249 3.68362 -3.74640
H 14.14787 3.35673 -4.88839
H 14.34568 1.61449 -4.86729
H 15.54257 3.76152 -3.27358
H 16.38094 2.35762 -4.02924
H 15.45888 2.19163 -2.46829
H 14.17843 -3.82250 -2.83524
H 13.59270 -2.36112 -3.69401
H 12.39290 -3.43979 -2.87595
H 12.23685 -4.15008 2.20103
H 14.49352 -6.94377 4.58548
H 14.56113 -5.38694 5.63221
H 15.72002 -5.81466 4.34915

