%nproc=24
%mem=175gb
#p cam-b3lyp/Def2SVP td=(nstates=5)

TDDFT excited states in gaussian

0 1
Mg 0.00000 0.00000 0.00000
C -0.21700 -2.21800 2.80100
C -1.25500 2.44200 2.02600
C -0.24500 1.85000 -2.56400
C 0.14600 -2.82400 -2.03700
N -0.61700 -0.00900 2.12600
C -0.59400 -0.90800 3.10500
C -0.93600 -0.30900 4.50200
C -1.77300 0.96400 4.03200
C -1.15500 1.16800 2.66000
C -3.26300 0.68500 3.86300
C 0.34500 0.11000 5.29900
C 0.12400 0.39700 6.78700
H 1.16800 0.03300 7.73300
N -0.18500 1.96100 -0.15200
C -0.70300 2.80000 0.77700
C -0.62000 4.15600 0.19300
C -0.18700 4.01500 -1.22500
C -0.21400 2.58300 -1.38000
C -0.88700 5.40600 0.97400
C 0.18100 5.01300 -2.27700
O 0.30300 4.69000 -3.50800
C 0.31000 6.41400 -1.83700
N -0.26500 -0.41300 -2.02900
C -0.27900 0.56900 -2.93700
C -0.19600 0.02400 -4.33200
C 0.12400 -1.53300 -4.18000
C 0.08600 -1.63200 -2.63500
C -1.45100 0.20500 -5.19700
C 1.37300 -2.07000 -4.92300
C 2.62600 -1.49000 -4.30600
N 0.15000 -2.14400 0.30300
C 0.17300 -3.13600 -0.68800
C 0.17300 -4.43800 0.00400
C 0.13300 -4.11100 1.35800
C 0.08300 -2.69500 1.50200
C 0.14900 -5.71500 -0.62300
C 0.09600 -4.62900 2.71600
O 0.20800 -5.74700 3.22100
C -0.25500 -3.42800 3.70100
C 0.71700 -3.48200 4.84800
O 1.93100 -3.25500 4.66900
O 0.03800 -3.55600 6.00300
C 0.94300 -3.58300 7.18300
H -1.85900 3.22000 2.49700
H -0.21800 2.45300 -3.47400
H 0.27600 -3.74700 -2.60500
H -1.55400 -0.94900 5.13200
H -1.58500 1.83100 4.66500
H -3.48400 -0.37700 3.96900
H -3.51100 1.02700 2.85800
H -3.85200 1.30100 4.54300
H 0.66900 1.09600 4.96600
H 1.13000 -0.63900 5.18900
H -0.84400 0.02600 7.12500
H 0.06200 1.47700 6.92100
H -1.34400 5.18600 1.93800
H -1.65100 5.96300 0.43200
H 0.00700 6.02000 1.08400
H -0.63500 6.74400 -1.40500
H 0.66500 6.97000 -2.70400
H 1.04800 6.46600 -1.03600
H 0.60800 0.50100 -4.89100
H -0.69200 -2.15600 -4.54700
H -1.26700 0.74000 -6.12900
H -2.20400 0.71400 -4.59600
H -1.96700 -0.72000 -5.45300
H 1.35600 -1.75900 -5.96700
H 1.45200 -3.15700 -4.90200
H 2.71400 -0.52200 -4.79800
H 3.48700 -2.12100 -4.52900
H 2.49500 -1.30300 -3.24000
H 0.86700 -6.33300 -0.08400
H 0.40400 -5.64200 -1.68000
H -0.89100 -5.99900 -0.46300
H -1.28300 -3.58100 4.02800
H 0.69800 -4.47800 7.75500
H 0.83300 -2.61900 7.68000
H 2.00000 -3.75400 6.97600
Mg 31.52418 2.84107 2.38925
C 31.57838 0.07597 0.10226
C 31.88228 4.89055 -0.31371
C 31.93174 5.25975 4.40203
C 32.31393 0.58173 4.92250
N 31.69608 2.41908 0.22485
C 31.64190 1.33388 -0.53262
C 31.57563 1.61652 -2.05750
C 32.24926 3.07429 -2.06136
C 31.89448 3.51124 -0.64154
C 33.76339 3.03726 -2.18540
C 30.10158 1.66349 -2.59320
C 29.96978 1.62710 -4.11735
H 28.83518 0.91689 -4.70110
N 31.36939 4.79747 2.09414
C 31.52261 5.45912 0.92794
C 31.32949 6.88269 1.24466
C 31.21297 7.02302 2.72164
C 31.52787 5.67190 3.14045
C 31.19231 7.94006 0.18798
C 30.88635 8.18448 3.61075
O 31.07433 8.13635 4.87770
C 30.42802 9.41200 2.94394
N 32.25306 2.95013 4.33326
C 32.27410 4.11804 4.99919
C 32.57791 3.90586 6.46311
C 32.51760 2.32387 6.68950
C 32.26630 1.86947 5.23494
C 33.92690 4.43782 6.94647
C 31.56263 1.80782 7.80054
C 30.12579 2.06141 7.40485
N 31.70490 0.69473 2.55842
C 32.07086 -0.04266 3.70577
C 32.16895 -1.45965 3.29964
C 31.87339 -1.44521 1.92817
C 31.62950 -0.11074 1.50485
C 32.54099 -2.54328 4.14430
C 31.72268 -2.25414 0.74006
O 31.72472 -3.46190 0.50543
C 31.64903 -1.29021 -0.52161
C 30.49218 -1.73095 -1.37598
O 29.32541 -1.64178 -0.95488
O 30.93429 -1.97931 -2.62226
C 29.82125 -2.40916 -3.51006
H 32.22027 5.60529 -1.06457
H 31.97968 6.04378 5.16129
H 32.45932 -0.19649 5.67477
H 32.15543 0.93738 -2.67100
H 31.77556 3.72637 -2.79057
H 34.14751 2.02945 -2.13146
H 34.14054 3.63044 -1.36264
H 34.07958 3.55150 -3.09749
H 29.67884 2.65618 -2.39170
H 29.51382 0.87724 -2.16079
H 30.90456 1.32459 -4.60482
H 29.79816 2.64518 -4.47523
H 31.48555 7.56248 -0.79936
H 31.93276 8.71521 0.41325
H 30.19908 8.39387 0.17265
H 31.18956 9.74903 2.24471
H 30.15901 10.09878 3.74881
H 29.53786 9.17609 2.35016
H 31.82869 4.37882 7.08607
H 33.49671 1.91641 6.98131
H 33.83822 5.15777 7.78186
H 34.43597 4.89108 6.10627
H 34.63710 3.67594 7.26326
H 31.73039 2.35796 8.72971
H 31.68885 0.75355 8.02320
H 29.96813 3.10259 7.70180
H 29.45672 1.39214 7.94194
H 30.00156 2.00644 6.31710
H 31.86191 -3.35642 3.92489
H 32.49891 -2.26149 5.19435
H 33.56665 -2.71161 3.80526
H 32.60048 -1.36779 -1.04914
H 30.10889 -3.37417 -3.93866
H 29.66156 -1.57218 -4.21555
H 28.87554 -2.65853 -3.04327

