%nproc=24
%mem=175gb
#p cam-b3lyp/Def2SVP td=(nstates=5)

TDDFT excited states in gaussian

0 1
Mg 31.52404 2.84087 2.40129
C 32.95930 4.94461 4.92979
C 30.63183 0.69871 4.90123
C 30.65349 0.75846 0.17123
C 33.49174 4.53149 0.07413
N 31.81326 2.92174 4.59265
C 32.31805 3.79951 5.44650
C 32.05407 3.46901 6.94004
C 31.84538 1.88273 6.80205
C 31.36572 1.82442 5.35319
C 33.13986 1.09389 6.90874
C 30.76341 4.17259 7.48884
C 30.61430 4.14546 9.01159
H 30.01263 5.30018 9.67271
N 30.33841 1.25372 2.51894
C 30.07114 0.51735 3.61785
C 29.16035 -0.54979 3.17533
C 29.04242 -0.48126 1.69340
C 30.04504 0.52172 1.39528
C 28.44068 -1.45443 4.13300
C 28.18012 -1.20848 0.70659
O 28.41215 -1.16195 -0.55310
C 27.11295 -2.05169 1.26483
N 32.15463 2.52296 0.44588
C 31.57428 1.58567 -0.32393
C 31.99909 1.72478 -1.76635
C 32.80064 3.10631 -1.84682
C 32.77618 3.50042 -0.35368
C 32.87325 0.59687 -2.31412
C 32.31071 4.14428 -2.89337
C 30.94651 4.66599 -2.50330
N 32.82819 4.56325 2.42600
C 33.57385 5.08414 1.34583
C 34.39749 6.18904 1.87805
C 34.08862 6.21957 3.24632
C 33.15470 5.19225 3.54949
C 35.32165 6.97235 1.13075
C 34.34829 6.88042 4.50510
O 34.98557 7.87516 4.84876
C 33.72447 6.00313 5.67455
C 32.95008 6.92041 6.58089
O 31.93243 7.50468 6.16902
O 33.40942 6.78804 7.83861
C 32.66498 7.66991 8.77665
H 30.50793 -0.14616 5.57926
H 30.30418 0.13742 -0.65689
H 34.05799 5.17141 -0.60597
H 32.88330 3.67848 7.60507
H 31.06988 1.52635 7.47507
H 34.00413 1.74048 6.94174
H 33.17292 0.46265 6.03040
H 33.09847 0.41571 7.76588
H 29.88415 3.58083 7.20339
H 30.70247 5.18434 7.13776
H 31.54726 3.85903 9.51208
H 29.91270 3.35104 9.27747
H 28.85288 -1.37676 5.14664
H 28.66123 -2.48317 3.82818
H 27.35876 -1.30627 4.12016
H 27.55038 -2.80108 1.92021
H 26.54941 -2.41765 0.40438
H 26.46438 -1.42733 1.88945
H 31.13706 1.78006 -2.41976
H 33.85628 2.94998 -2.11332
H 32.44555 0.10916 -3.21038
H 33.03007 -0.12712 -1.52559
H 33.89170 0.88444 -2.56961
H 32.19380 3.67015 -3.87096
H 32.98818 4.98202 -3.02071
H 30.26894 3.89977 -2.89176
H 30.75837 5.63166 -2.96820
H 30.83007 4.68714 -1.41351
H 35.17345 8.00073 1.43239
H 35.17513 6.84623 0.06005
H 36.26539 6.53700 1.47001
H 34.55002 5.51529 6.19422
H 33.40680 8.29152 9.28752
H 32.05705 6.99216 9.40500
H 32.01644 8.42450 8.34718

