%nproc=24
%mem=175gb
#p cam-b3lyp/Def2SVP td=(nstates=5)

TDDFT excited states in gaussian

0 1
Mg 8.94058 0.81221 0.68182
C 8.47455 0.68258 4.23781
C 7.76092 4.01072 0.79399
C 8.91302 0.80782 -2.49098
C 8.98380 -2.67254 0.70009
N 8.24069 2.07319 2.35882
C 8.16685 1.93850 3.67441
C 7.81663 3.24495 4.43605
C 7.07183 4.02475 3.24607
C 7.75373 3.35851 2.05283
C 5.58310 3.72891 3.17184
C 9.09490 4.01727 4.91726
C 8.82874 5.13355 5.92960
H 9.81665 5.37233 6.97817
N 8.88601 2.32284 -0.60411
C 8.39275 3.55989 -0.38579
C 8.56852 4.29194 -1.64967
C 9.05495 3.33625 -2.68154
C 8.94801 2.08692 -1.95504
C 8.35778 5.77350 -1.76797
C 9.52491 3.51539 -4.09336
O 9.67569 2.51828 -4.88449
C 9.71374 4.89980 -4.55079
N 8.73564 -0.70539 -0.72433
C 8.81229 -0.44300 -2.04084
C 8.91322 -1.71659 -2.84591
C 9.13288 -2.88485 -1.77610
C 9.02709 -2.05959 -0.47489
C 7.70427 -2.04838 -3.72040
C 10.37490 -3.79631 -1.97438
C 11.64021 -3.00171 -1.74420
N 8.94980 -0.73528 2.18954
C 8.94284 -2.13157 1.97879
C 8.83501 -2.77164 3.30585
C 8.76296 -1.69450 4.20199
C 8.80140 -0.46958 3.48254
C 8.76614 -4.17213 3.55083
C 8.65243 -1.31519 5.59217
O 8.66806 -1.92233 6.66216
C 8.33336 0.24008 5.66780
C 9.25498 0.85436 6.68554
O 10.48270 0.88468 6.48960
O 8.52170 1.49491 7.61418
C 9.39173 2.13003 8.63961
H 7.19397 4.93576 0.68569
H 9.01290 0.74886 -3.57727
H 9.08949 -3.75509 0.79802
H 7.14289 3.11525 5.27452
H 7.29666 5.08790 3.26900
H 5.29246 2.94923 3.86015
H 5.39465 3.42223 2.15131
H 5.00833 4.64736 3.32154
H 9.49001 4.61074 4.08274
H 9.82454 3.33750 5.31243
H 7.82119 5.06968 6.35821
H 8.83508 6.08998 5.40120
H 7.84355 6.17823 -0.88754
H 7.65241 5.93143 -2.59099
H 9.28134 6.31427 -1.98538
H 8.77660 5.44292 -4.45457
H 10.13719 4.82093 -5.55396
H 10.43270 5.39265 -3.88685
H 9.76607 -1.68594 -3.51287
H 8.29166 -3.59345 -1.76808
H 7.95971 -2.17124 -4.78985
H 6.96626 -1.26758 -3.59298
H 7.15166 -2.93890 -3.42576
H 10.41863 -4.15798 -3.00464
H 10.37957 -4.66686 -1.32700
H 11.80153 -2.50986 -2.70812
H 12.46776 -3.66287 -1.49505
H 11.48121 -2.21650 -0.99599
H 9.41637 -4.37345 4.39176
H 9.06086 -4.74417 2.67351
H 7.70081 -4.27930 3.77188
H 7.28473 0.34611 5.94835
H 9.06605 1.75181 9.61356
H 9.30813 3.21980 8.46885
H 10.44031 1.85638 8.64633

