%nproc=24
%mem=175gb
#p cam-b3lyp/Def2SVP td=(nstates=5)

TDDFT excited states in gaussian

0 1
Mg 0.00000 0.00000 0.00000
C -0.21700 -2.21800 2.80100
C -1.25500 2.44200 2.02600
C -0.24500 1.85000 -2.56400
C 0.14600 -2.82400 -2.03700
N -0.61700 -0.00900 2.12600
C -0.59400 -0.90800 3.10500
C -0.93600 -0.30900 4.50200
C -1.77300 0.96400 4.03200
C -1.15500 1.16800 2.66000
C -3.26300 0.68500 3.86300
C 0.34500 0.11000 5.29900
C 0.12400 0.39700 6.78700
H 1.16800 0.03300 7.73300
N -0.18500 1.96100 -0.15200
C -0.70300 2.80000 0.77700
C -0.62000 4.15600 0.19300
C -0.18700 4.01500 -1.22500
C -0.21400 2.58300 -1.38000
C -0.88700 5.40600 0.97400
C 0.18100 5.01300 -2.27700
O 0.30300 4.69000 -3.50800
C 0.31000 6.41400 -1.83700
N -0.26500 -0.41300 -2.02900
C -0.27900 0.56900 -2.93700
C -0.19600 0.02400 -4.33200
C 0.12400 -1.53300 -4.18000
C 0.08600 -1.63200 -2.63500
C -1.45100 0.20500 -5.19700
C 1.37300 -2.07000 -4.92300
C 2.62600 -1.49000 -4.30600
N 0.15000 -2.14400 0.30300
C 0.17300 -3.13600 -0.68800
C 0.17300 -4.43800 0.00400
C 0.13300 -4.11100 1.35800
C 0.08300 -2.69500 1.50200
C 0.14900 -5.71500 -0.62300
C 0.09600 -4.62900 2.71600
O 0.20800 -5.74700 3.22100
C -0.25500 -3.42800 3.70100
C 0.71700 -3.48200 4.84800
O 1.93100 -3.25500 4.66900
O 0.03800 -3.55600 6.00300
C 0.94300 -3.58300 7.18300
H -1.85900 3.22000 2.49700
H -0.21800 2.45300 -3.47400
H 0.27600 -3.74700 -2.60500
H -1.55400 -0.94900 5.13200
H -1.58500 1.83100 4.66500
H -3.48400 -0.37700 3.96900
H -3.51100 1.02700 2.85800
H -3.85200 1.30100 4.54300
H 0.66900 1.09600 4.96600
H 1.13000 -0.63900 5.18900
H -0.84400 0.02600 7.12500
H 0.06200 1.47700 6.92100
H -1.34400 5.18600 1.93800
H -1.65100 5.96300 0.43200
H 0.00700 6.02000 1.08400
H -0.63500 6.74400 -1.40500
H 0.66500 6.97000 -2.70400
H 1.04800 6.46600 -1.03600
H 0.60800 0.50100 -4.89100
H -0.69200 -2.15600 -4.54700
H -1.26700 0.74000 -6.12900
H -2.20400 0.71400 -4.59600
H -1.96700 -0.72000 -5.45300
H 1.35600 -1.75900 -5.96700
H 1.45200 -3.15700 -4.90200
H 2.71400 -0.52200 -4.79800
H 3.48700 -2.12100 -4.52900
H 2.49500 -1.30300 -3.24000
H 0.86700 -6.33300 -0.08400
H 0.40400 -5.64200 -1.68000
H -0.89100 -5.99900 -0.46300
H -1.28300 -3.58100 4.02800
H 0.69800 -4.47800 7.75500
H 0.83300 -2.61900 7.68000
H 2.00000 -3.75400 6.97600
Mg 7.88963 0.71805 0.59958
C 7.33439 1.70691 4.00441
C 6.79755 3.81547 -0.32125
C 7.93862 -0.26989 -2.41522
C 7.83490 -2.58926 1.69703
N 7.18499 2.45019 1.78085
C 7.07565 2.73172 3.07047
C 6.74381 4.21643 3.37881
C 6.05008 4.60268 1.98295
C 6.74170 3.58623 1.07676
C 4.55589 4.32691 1.95688
C 8.03119 5.07537 3.63749
C 7.77198 6.45550 4.24561
H 8.74057 6.98887 5.19946
N 7.90843 1.75596 -1.09186
C 7.44483 3.00890 -1.28292
C 7.67149 3.30924 -2.70509
C 8.15578 2.07148 -3.37452
C 7.99642 1.11145 -2.30073
C 7.50521 4.68474 -3.28282
C 8.66455 1.79478 -4.75683
O 8.80644 0.59875 -5.19525
C 8.90302 2.96511 -5.61413
N 7.67635 -1.15670 -0.27346
C 7.79209 -1.31718 -1.60342
C 7.87678 -2.77938 -1.97108
C 8.03776 -3.56209 -0.58579
C 7.92370 -2.37201 0.39201
C 6.68049 -3.34293 -2.73770
C 9.25822 -4.51365 -0.45279
C 10.53934 -3.71117 -0.43997
N 7.81914 -0.28524 2.51178
C 7.77821 -1.67762 2.74349
C 7.62049 -1.87223 4.19940
C 7.55698 -0.56906 4.71533
C 7.64703 0.37126 3.65364
C 7.50657 -3.12604 4.86356
C 7.42354 0.22485 5.91558
O 7.39633 -0.02058 7.12089
C 7.14637 1.73265 5.49592
C 8.05996 2.61462 6.30215
O 9.29242 2.55920 6.14539
O 7.32267 3.52554 6.96320
C 8.18510 4.43070 7.76865
H 6.25947 4.67194 -0.72847
H 8.06303 -0.66483 -3.42617
H 7.90788 -3.58983 2.12855
H 6.04665 4.36615 4.19448
H 6.30394 5.61599 1.68275
H 4.22701 3.80493 2.84317
H 4.38364 3.72242 1.07598
H 4.00359 5.25729 1.79665
H 8.46279 5.37299 2.67319
H 8.73176 4.53791 4.24656
H 6.75298 6.54701 4.64084
H 7.81784 7.20051 3.44757
H 6.98138 5.35239 -2.58765
H 6.82461 4.59301 -4.13619
H 8.44851 5.11364 -3.62762
H 7.97939 3.52908 -5.72046
H 9.34821 2.57084 -6.52968
H 9.61924 3.62578 -5.11296
H 8.74601 -2.97345 -2.58743
H 7.17710 -4.21703 -0.38544
H 6.95816 -3.79635 -3.70795
H 5.96175 -2.54717 -2.88166
H 6.09623 -4.08738 -2.19951
H 9.31669 -5.17785 -1.31856
H 9.22290 -5.14033 0.43209
H 10.73759 -3.54580 -1.50319
H 11.34181 -4.27810 0.02765
H 10.38434 -2.72970 0.02300
H 8.13041 -3.06893 5.74564
H 7.80629 -3.94755 4.21621
H 6.43364 -3.13897 5.07311
H 6.09465 1.94049 5.69655
H 7.82553 4.37958 8.80102
H 8.13617 5.41511 7.26637
H 9.22514 4.15266 7.89292

