%nproc=24
%mem=175gb
#p cam-b3lyp/Def2SVP td=(nstates=5)

TDDFT excited states in gaussian

0 1
Mg 13.13640 1.18516 0.98794
C 15.00429 -1.36651 -0.70883
C 15.03679 3.47535 -0.67884
C 11.82425 3.44051 2.79323
C 12.20499 -1.23766 3.31347
N 14.77679 0.96035 -0.47864
C 15.35969 -0.05715 -1.09447
C 16.32266 0.35138 -2.24135
C 16.67132 1.83813 -1.74446
C 15.40398 2.13193 -0.94433
C 17.85800 1.89317 -0.79678
C 15.61349 0.36502 -3.64095
C 16.55965 0.45258 -4.84048
H 16.20362 -0.26475 -6.06161
N 13.03359 3.14855 0.71753
C 13.87438 3.91513 -0.00822
C 13.37914 5.29384 0.12621
C 12.27478 5.30040 1.12373
C 12.35024 3.93716 1.60950
C 13.89589 6.42912 -0.70898
C 11.31845 6.36206 1.57597
O 10.59653 6.21550 2.62487
C 11.31996 7.61592 0.80830
N 12.33034 1.16589 2.90425
C 11.77764 2.27177 3.43291
C 11.02165 1.95131 4.70026
C 10.97855 0.35477 4.78277
C 11.83153 0.01409 3.54110
C 11.61906 2.51141 5.99091
C 9.57939 -0.30523 4.92209
C 8.78161 -0.09606 3.65513
N 13.36242 -0.95498 1.17969
C 12.91857 -1.76744 2.24599
C 13.40512 -3.13702 1.98154
C 14.12348 -3.02079 0.78198
C 14.10424 -1.66992 0.34122
C 13.20576 -4.26763 2.82302
C 14.90265 -3.73166 -0.20607
O 15.18220 -4.91296 -0.40635
C 15.61426 -2.66832 -1.14911
C 15.40005 -3.09553 -2.57534
O 14.25795 -3.10556 -3.06738
O 16.59408 -3.21191 -3.18453
C 16.43336 -3.62305 -4.60472
H 15.72350 4.26901 -0.97449
H 11.26508 4.15790 3.39834
H 11.87423 -2.06866 3.94014
H 17.22772 -0.24050 -2.30709
H 16.76052 2.52405 -2.58287
H 18.19862 0.90651 -0.51996
H 17.51312 2.43291 0.07544
H 18.65836 2.50003 -1.22976
H 15.07233 1.31263 -3.75894
H 14.96947 -0.48585 -3.75006
H 17.59953 0.24362 -4.56134
H 16.57924 1.48694 -5.19222
H 14.81817 6.15397 -1.23537
H 14.20378 7.22067 -0.01723
H 13.14128 6.82863 -1.38988
H 12.31579 8.05210 0.83108
H 10.50927 8.21565 1.22661
H 11.10168 7.38444 -0.24022
H 10.00741 2.32817 4.65133
H 11.53006 -0.02312 5.65620
H 10.91518 3.15120 6.55598
H 12.51636 3.06178 5.74096
H 11.99314 1.76435 6.68888
H 9.01431 0.17132 5.72691
H 9.62250 -1.36643 5.14344
H 8.36301 0.90582 3.78966
H 7.99584 -0.84389 3.56936
H 9.43782 -0.06404 2.77762
H 12.94213 -5.09420 2.17666
H 12.43237 -4.07969 3.56485
H 14.19735 -4.35097 3.27588
H 16.67152 -2.64918 -0.88188
H 17.02849 -4.53088 -4.74383
H 16.71613 -2.73837 -5.20567
H 15.45365 -3.96194 -4.92059

