%nproc=24
%mem=175gb
#p cam-b3lyp/Def2SVP td=(nstates=5)

TDDFT excited states in gaussian

0 1
Mg 0.00000 0.00000 0.00000
C -0.21700 -2.21800 2.80100
C -1.25500 2.44200 2.02600
C -0.24500 1.85000 -2.56400
C 0.14600 -2.82400 -2.03700
N -0.61700 -0.00900 2.12600
C -0.59400 -0.90800 3.10500
C -0.93600 -0.30900 4.50200
C -1.77300 0.96400 4.03200
C -1.15500 1.16800 2.66000
C -3.26300 0.68500 3.86300
C 0.34500 0.11000 5.29900
C 0.12400 0.39700 6.78700
H 1.16800 0.03300 7.73300
N -0.18500 1.96100 -0.15200
C -0.70300 2.80000 0.77700
C -0.62000 4.15600 0.19300
C -0.18700 4.01500 -1.22500
C -0.21400 2.58300 -1.38000
C -0.88700 5.40600 0.97400
C 0.18100 5.01300 -2.27700
O 0.30300 4.69000 -3.50800
C 0.31000 6.41400 -1.83700
N -0.26500 -0.41300 -2.02900
C -0.27900 0.56900 -2.93700
C -0.19600 0.02400 -4.33200
C 0.12400 -1.53300 -4.18000
C 0.08600 -1.63200 -2.63500
C -1.45100 0.20500 -5.19700
C 1.37300 -2.07000 -4.92300
C 2.62600 -1.49000 -4.30600
N 0.15000 -2.14400 0.30300
C 0.17300 -3.13600 -0.68800
C 0.17300 -4.43800 0.00400
C 0.13300 -4.11100 1.35800
C 0.08300 -2.69500 1.50200
C 0.14900 -5.71500 -0.62300
C 0.09600 -4.62900 2.71600
O 0.20800 -5.74700 3.22100
C -0.25500 -3.42800 3.70100
C 0.71700 -3.48200 4.84800
O 1.93100 -3.25500 4.66900
O 0.03800 -3.55600 6.00300
C 0.94300 -3.58300 7.18300
H -1.85900 3.22000 2.49700
H -0.21800 2.45300 -3.47400
H 0.27600 -3.74700 -2.60500
H -1.55400 -0.94900 5.13200
H -1.58500 1.83100 4.66500
H -3.48400 -0.37700 3.96900
H -3.51100 1.02700 2.85800
H -3.85200 1.30100 4.54300
H 0.66900 1.09600 4.96600
H 1.13000 -0.63900 5.18900
H -0.84400 0.02600 7.12500
H 0.06200 1.47700 6.92100
H -1.34400 5.18600 1.93800
H -1.65100 5.96300 0.43200
H 0.00700 6.02000 1.08400
H -0.63500 6.74400 -1.40500
H 0.66500 6.97000 -2.70400
H 1.04800 6.46600 -1.03600
H 0.60800 0.50100 -4.89100
H -0.69200 -2.15600 -4.54700
H -1.26700 0.74000 -6.12900
H -2.20400 0.71400 -4.59600
H -1.96700 -0.72000 -5.45300
H 1.35600 -1.75900 -5.96700
H 1.45200 -3.15700 -4.90200
H 2.71400 -0.52200 -4.79800
H 3.48700 -2.12100 -4.52900
H 2.49500 -1.30300 -3.24000
H 0.86700 -6.33300 -0.08400
H 0.40400 -5.64200 -1.68000
H -0.89100 -5.99900 -0.46300
H -1.28300 -3.58100 4.02800
H 0.69800 -4.47800 7.75500
H 0.83300 -2.61900 7.68000
H 2.00000 -3.75400 6.97600
Mg 13.13018 1.18510 0.99197
C 13.18439 -1.58000 -1.29502
C 13.48829 3.23458 -1.71099
C 13.53774 3.60379 3.00475
C 13.91994 -1.07424 3.52523
N 13.30209 0.76311 -1.17243
C 13.24791 -0.32209 -1.92989
C 13.18164 -0.03944 -3.45478
C 13.85527 1.41832 -3.45863
C 13.50049 1.85528 -2.03882
C 15.36940 1.38129 -3.58268
C 11.70759 0.00752 -3.99047
C 11.57578 -0.02887 -5.51463
H 10.44119 -0.73908 -6.09838
N 12.97540 3.14151 0.69686
C 13.12862 3.80316 -0.46934
C 12.93550 5.22673 -0.15261
C 12.81898 5.36705 1.32436
C 13.13387 4.01593 1.74317
C 12.79831 6.28409 -1.20929
C 12.49236 6.52852 2.21347
O 12.68034 6.48038 3.48043
C 12.03403 7.75603 1.54666
N 13.85907 1.29416 2.93598
C 13.88011 2.46208 3.60191
C 14.18392 2.24989 5.06584
C 14.12361 0.66790 5.29223
C 13.87231 0.21351 3.83766
C 15.53291 2.78185 5.54919
C 13.16864 0.15185 6.40326
C 11.73180 0.40544 6.00757
N 13.31091 -0.96124 1.16114
C 13.67687 -1.69863 2.30850
C 13.77496 -3.11562 1.90236
C 13.47940 -3.10118 0.53090
C 13.23551 -1.76671 0.10758
C 14.14700 -4.19924 2.74703
C 13.32869 -3.91011 -0.65722
O 13.33073 -5.11787 -0.89185
C 13.25504 -2.94617 -1.91888
C 12.09818 -3.38692 -2.77325
O 10.93142 -3.29775 -2.35216
O 12.54030 -3.63528 -4.01953
C 11.42726 -4.06513 -4.90733
H 13.82627 3.94933 -2.46185
H 13.58569 4.38781 3.76402
H 14.06533 -1.85246 4.27750
H 13.76144 -0.71859 -4.06827
H 13.38157 2.07041 -4.18785
H 15.75352 0.37348 -3.52873
H 15.74655 1.97448 -2.75992
H 15.68559 1.89553 -4.49477
H 11.28485 1.00022 -3.78898
H 11.11983 -0.77873 -3.55807
H 12.51057 -0.33138 -6.00209
H 11.40416 0.98921 -5.87250
H 13.09155 5.90651 -2.19664
H 13.53877 7.05924 -0.98403
H 11.80509 6.73790 -1.22462
H 12.79557 8.09307 0.84743
H 11.76501 8.44282 2.35154
H 11.14387 7.52013 0.95288
H 13.43469 2.72285 5.68879
H 15.10272 0.26044 5.58403
H 15.44423 3.50180 6.38459
H 16.04198 3.23511 4.70900
H 16.24311 2.01997 5.86598
H 13.33639 0.70199 7.33244
H 13.29485 -0.90241 6.62593
H 11.57413 1.44662 6.30453
H 11.06272 -0.26382 6.54466
H 11.60757 0.35048 4.91983
H 13.46792 -5.01239 2.52761
H 14.10491 -3.91745 3.79707
H 15.17266 -4.36758 2.40799
H 14.20649 -3.02376 -2.44642
H 11.71490 -5.03014 -5.33593
H 11.26757 -3.22815 -5.61282
H 10.48155 -4.31449 -4.44054

