%nproc=24
%mem=175gb
#p cam-b3lyp/Def2SVP td=(nstates=5)

TDDFT excited states in gaussian

0 1
Mg 31.54002 2.83297 2.40008
C 31.75432 0.04361 0.15228
C 30.67176 0.61053 4.83760
C 30.90528 5.30308 4.28769
C 31.29817 4.89315 -0.40043
N 31.28065 0.63652 2.37560
C 31.44918 -0.32406 1.47936
C 31.36030 -1.76312 2.05448
C 30.46841 -1.44871 3.35238
C 30.85189 0.01446 3.56389
C 28.97376 -1.51711 3.08648
C 32.76635 -2.33704 2.44901
C 32.79199 -3.84175 2.72638
H 33.97865 -4.60046 2.34079
N 31.36515 2.92879 4.37462
C 31.02663 1.92538 5.21120
C 31.01699 2.51221 6.56016
C 31.21630 3.98158 6.43393
C 31.14768 4.13420 4.99446
C 30.91052 1.68350 7.80729
C 31.42044 5.07108 7.44265
O 31.33414 6.30934 7.12314
C 31.63180 4.64524 8.83387
N 30.94512 4.78708 2.01294
C 30.78971 5.67325 3.01218
C 30.62918 7.07619 2.47703
C 30.95240 6.97932 0.91379
C 31.16616 5.45444 0.79360
C 29.25198 7.70956 2.67341
C 32.05393 7.92580 0.36291
C 33.40109 7.53172 0.92438
N 31.70997 2.57693 0.26148
C 31.54757 3.56748 -0.73176
C 31.64334 2.89065 -2.04139
C 31.83334 1.53904 -1.71652
C 31.83430 1.38151 -0.30419
C 31.50728 3.51591 -3.31287
C 32.02269 0.20819 -2.24728
O 32.19271 -0.26276 -3.37113
C 31.85348 -0.83733 -1.06211
C 33.00039 -1.80803 -1.13175
O 34.16612 -1.42453 -0.93024
O 32.51388 -3.06014 -1.20854
C 33.61353 -4.05964 -1.26860
H 30.17288 0.03174 5.61542
H 30.79014 6.20499 4.89331
H 31.33094 5.47994 -1.32091
H 30.85119 -2.47630 1.41734
H 30.78044 -2.05124 4.20147
H 28.75694 -1.65034 2.03702
H 28.56877 -0.57803 3.44025
H 28.51609 -2.29469 3.70474
H 33.04200 -1.95829 3.44164
H 33.49951 -2.09427 1.70458
H 31.88336 -4.34211 2.37003
H 32.77597 -3.99554 3.80809
H 30.60955 0.65313 7.58110
H 30.07611 2.08848 8.39005
H 31.81679 1.71952 8.41560
H 30.77850 4.05843 9.16552
H 31.84738 5.55972 9.38985
H 32.50276 3.98124 8.86801
H 31.33812 7.75067 2.94133
H 30.07270 7.22267 0.29998
H 29.28693 8.66774 3.22544
H 28.61903 6.99788 3.18666
H 28.69442 7.89581 1.75709
H 31.86961 8.95211 0.68984
H 32.11058 7.93817 -0.72043
H 33.41492 8.02420 1.90129
H 34.20359 7.89710 0.28677
H 33.45364 6.45085 1.09933
H 32.28761 3.11151 -3.94379
H 31.58036 4.59856 -3.23337
H 30.49885 3.19130 -3.58294
H 30.89035 -1.33131 -1.19604
H 33.45025 -4.66058 -2.16854
H 33.58902 -4.58946 -0.29781
H 34.61777 -3.69022 -1.44030

