%nproc=24
%mem=175gb
#p cam-b3lyp/Def2SVP td=(nstates=5)

TDDFT excited states in gaussian

0 1
Mg 8.93173 0.80878 0.68797
C 6.82039 -1.72220 2.10763
C 6.27357 2.93547 0.90235
C 10.61830 2.92514 -0.96851
C 11.00172 -1.75313 -0.45111
N 6.86666 0.52617 1.42814
C 6.19624 -0.46180 2.00154
C 4.80637 -0.05612 2.56121
C 4.53443 1.22135 1.62686
C 5.97884 1.61412 1.32339
C 3.84867 0.87326 0.31618
C 4.86597 0.34344 4.07740
C 3.50461 0.45217 4.76778
H 3.39902 0.04565 6.16638
N 8.69776 2.77012 0.49566
C 7.55355 3.47109 0.63948
C 7.90583 4.87482 0.37566
C 9.31616 4.92367 -0.09687
C 9.59838 3.50859 -0.23102
C 6.96873 6.01462 0.65160
C 10.25142 6.05675 -0.39285
O 11.35423 5.87336 -1.01976
C 9.79487 7.40077 -0.00987
N 10.45591 0.61207 -0.71222
C 11.05327 1.69464 -1.24054
C 12.29638 1.31182 -2.00770
C 12.54421 -0.23385 -1.68048
C 11.29646 -0.51228 -0.81389
C 12.22985 1.50681 -3.52227
C 13.93841 -0.61854 -1.11400
C 14.11161 -0.03627 0.27032
N 9.04114 -1.33350 0.94625
C 9.97277 -2.21705 0.35846
C 9.57348 -3.58738 0.73951
C 8.41481 -3.40601 1.50962
C 8.10180 -2.02188 1.58519
C 10.22589 -4.78646 0.33615
C 7.37931 -4.07151 2.26695
O 7.17304 -5.23068 2.62403
C 6.22934 -3.02060 2.58244
C 5.87891 -3.13923 4.04040
O 6.70820 -2.83675 4.91641
O 4.56042 -3.38005 4.15850
C 4.16240 -3.49481 5.58687
H 5.44375 3.61727 0.71414
H 11.29568 3.62089 -1.46908
H 11.65110 -2.59951 -0.68484
H 4.02612 -0.79408 2.41839
H 4.03150 2.01279 2.17645
H 3.76353 -0.19424 0.17711
H 4.46250 1.30835 -0.46160
H 2.87972 1.37665 0.25239
H 5.20237 1.38494 4.16026
H 5.49582 -0.33072 4.62459
H 2.70347 -0.00385 4.17350
H 3.22802 1.50773 4.82532
H 5.94746 5.65978 0.83731
H 6.89042 6.59540 -0.27383
H 7.32484 6.66877 1.45031
H 8.85675 7.62074 -0.51386
H 10.63502 8.06561 -0.21966
H 9.58315 7.40521 1.06520
H 13.15132 1.88417 -1.66918
H 12.44901 -0.86093 -2.57911
H 13.02989 2.16334 -3.91338
H 11.25530 1.90436 -3.77276
H 12.26269 0.58963 -4.10786
H 14.73021 -0.18905 -1.73266
H 14.10727 -1.68941 -1.07248
H 14.43593 0.98891 0.06802
H 14.86793 -0.58718 0.82575
H 13.15171 0.01949 0.79676
H 10.28683 -5.41774 1.21266
H 11.21141 -4.58305 -0.07755
H 9.52660 -5.14237 -0.42516
H 5.38261 -3.25797 1.93725
H 3.66639 -4.46335 5.70348
H 3.56117 -2.59172 5.80295
H 4.95391 -3.57255 6.32302

