%nproc=24
%mem=175gb
#p cam-b3lyp/Def2SVP td=(nstates=5)

TDDFT excited states in gaussian

0 1
Mg 31.53205 2.84753 2.40132
C 33.41609 1.80817 5.27346
C 28.88441 3.32722 4.49762
C 29.72117 3.33431 -0.15821
C 33.90642 1.22767 0.43050
N 31.30341 2.56963 4.58369
C 32.10558 2.22922 5.58118
C 31.49292 2.42335 6.99417
C 29.93934 2.34145 6.59598
C 30.03406 2.80795 5.14474
C 29.38900 0.92500 6.60740
C 31.85384 3.81815 7.61568
C 31.55129 3.95422 9.10957
H 32.45510 4.75284 9.93285
N 29.76042 3.72526 2.22966
C 28.81811 3.85049 3.18761
C 27.69199 4.55431 2.55465
C 27.98008 4.68821 1.10076
C 29.18179 3.88520 0.99511
C 26.52841 5.09444 3.33424
C 27.28156 5.40800 -0.01287
O 27.57472 5.19293 -1.24195
C 26.18063 6.30250 0.37355
N 31.65721 2.17700 0.43737
C 30.76997 2.58063 -0.48881
C 31.21747 2.19344 -1.87813
C 32.71463 1.65600 -1.71309
C 32.84791 1.74598 -0.17701
C 30.37001 1.13129 -2.57815
C 33.80501 2.32991 -2.59036
C 34.00233 3.76464 -2.15678
N 33.43283 1.87724 2.73839
C 34.24890 1.24242 1.77656
C 35.38131 0.63082 2.50183
C 35.13133 0.93502 3.84848
C 33.91752 1.66604 3.95698
C 36.42945 -0.13321 1.91549
C 35.61275 0.79481 5.20394
O 36.63575 0.34721 5.72052
C 34.45821 1.24487 6.19937
C 35.06052 2.16938 7.22163
O 35.51209 3.27763 6.88328
O 34.80850 1.68899 8.45292
C 35.37665 2.57752 9.50152
H 27.93155 3.29335 5.02657
H 29.19173 3.56828 -1.08472
H 34.74022 0.78937 -0.12210
H 31.73599 1.64339 7.70575
H 29.34419 3.03697 7.18199
H 30.16593 0.19218 6.76712
H 28.92652 0.78128 5.63968
H 28.58330 0.83955 7.34216
H 31.16878 4.57658 7.21540
H 32.88185 4.06285 7.43143
H 31.35891 2.98293 9.58131
H 30.61121 4.49913 9.22501
H 26.51166 4.69941 4.35750
H 25.62002 4.69214 2.87287
H 26.48004 6.18533 3.31729
H 25.42485 5.73400 0.91026
H 25.86546 6.79352 -0.54919
H 26.56754 7.05121 1.07381
H 31.22342 3.05362 -2.53627
H 32.79612 0.59051 -1.97371
H 29.96699 1.46679 -3.55236
H 29.56668 0.84286 -1.91331
H 30.87360 0.18282 -2.75708
H 33.48427 2.36253 -3.63450
H 34.76010 1.81606 -2.56276
H 33.20111 4.29347 -2.68164
H 34.98145 4.12649 -2.46408
H 33.82341 3.87894 -1.08134
H 37.35098 0.19789 2.37555
H 36.45622 -0.00801 0.83503
H 36.12095 -1.14149 2.20437
H 34.04802 0.34262 6.65464
H 36.02907 1.95882 10.12541
H 34.50716 3.05013 9.99586
H 36.06257 3.35373 9.18300

