%nproc=24
%mem=175gb
#p cam-b3lyp/Def2SVP td=(nstates=5)

TDDFT excited states in gaussian

0 1
Mg 13.14604 1.18646 0.99147
C 12.60152 4.72543 1.23283
C 12.49128 1.46414 -2.34451
C 13.17509 -1.98186 0.82320
C 12.63106 1.01277 4.43390
N 12.62684 2.92399 -0.27489
C 12.50881 4.22940 -0.08428
C 12.35842 5.05873 -1.38780
C 11.76939 3.90680 -2.33909
C 12.35727 2.68494 -1.63615
C 10.25409 3.80264 -2.29064
C 13.73490 5.59360 -1.91811
C 13.63257 6.66351 -3.00740
H 14.62697 7.73272 -3.02843
N 13.35686 -0.01457 -0.57430
C 13.06395 0.26714 -1.86121
C 13.37718 -0.95273 -2.62145
C 13.72295 -2.03126 -1.65608
C 13.40456 -1.37583 -0.40343
C 13.40826 -0.99101 -4.12178
C 14.24078 -3.42665 -1.83196
O 14.24433 -4.27018 -0.86693
C 14.65676 -3.80520 -3.19032
N 12.72630 -0.30313 2.37974
C 12.86755 -1.60239 2.06366
C 12.77794 -2.47557 3.29245
C 12.78870 -1.46989 4.53586
C 12.79291 -0.12614 3.77446
C 11.54737 -3.37814 3.37886
C 13.87231 -1.70673 5.62322
C 15.24408 -1.42139 5.05557
N 12.88060 2.60650 2.59805
C 12.65420 2.31894 3.96192
C 12.42159 3.60760 4.64578
C 12.50666 4.56112 3.62009
C 12.75341 3.91077 2.38087
C 12.12524 3.77426 6.02800
C 12.43328 5.96904 3.30217
O 12.33240 7.00399 3.95978
C 12.36574 6.12746 1.72206
C 13.35532 7.18600 1.31865
O 14.57541 7.00335 1.47564
O 12.71738 8.14179 0.61875
C 13.65923 9.20868 0.18692
H 12.08159 1.40184 -3.35306
H 13.28374 -3.06878 0.83978
H 12.56049 1.05176 5.52302
H 11.65767 5.88253 -1.32378
H 12.16091 3.99044 -3.34958
H 9.83019 4.44416 -1.53242
H 10.03737 2.76504 -2.07275
H 9.83101 3.99751 -3.28027
H 14.23475 4.79678 -2.48376
H 14.33922 5.95735 -1.10995
H 12.62024 7.07864 -3.08361
H 13.80127 6.18879 -3.97703
H 12.94965 -0.09436 -4.55663
H 12.75210 -1.81053 -4.43439
H 14.41017 -1.16973 -4.51790
H 13.81697 -3.68780 -3.87107
H 15.08008 -4.80725 -3.09772
H 15.43326 -3.10848 -3.52535
H 13.63654 -3.13193 3.36390
H 11.84497 -1.50875 5.09951
H 11.79904 -4.45034 3.48431
H 10.94157 -3.21462 2.49750
H 10.85426 -3.13821 4.18337
H 13.87613 -2.75494 5.93209
H 13.72608 -1.10837 6.51629
H 15.49926 -2.35517 4.54564
H 15.95064 -1.20150 5.85336
H 15.19930 -0.63248 4.29579
H 12.71971 4.60875 6.37546
H 12.34039 2.86946 6.59265
H 11.05270 3.97924 5.97418
H 11.34270 6.40376 1.46395
H 13.25983 10.15723 0.55898
H 13.75407 9.09757 -0.90962
H 14.65026 9.20995 0.62545

