%nproc=24
%mem=175gb
#p cam-b3lyp/Def2SVP td=(nstates=5)

TDDFT excited states in gaussian

0 1
Mg 7.88949 0.71758 0.60197
C 7.42346 0.58795 4.15796
C 6.70984 3.91609 0.71415
C 7.86193 0.71319 -2.57083
C 7.93271 -2.76717 0.62025
N 7.18961 1.97856 2.27898
C 7.11577 1.84388 3.59456
C 6.76554 3.15032 4.35621
C 6.02074 3.93012 3.16623
C 6.70264 3.26389 1.97299
C 4.53201 3.63428 3.09199
C 8.04381 3.92265 4.83741
C 7.77766 5.03892 5.84976
H 8.76557 5.27770 6.89832
N 7.83493 2.22821 -0.68395
C 7.34167 3.46527 -0.46563
C 7.51743 4.19731 -1.72951
C 8.00386 3.24163 -2.76139
C 7.89692 1.99229 -2.03488
C 7.30670 5.67887 -1.84782
C 8.47383 3.42077 -4.17321
O 8.62460 2.42366 -4.96433
C 8.66265 4.80518 -4.63063
N 7.68455 -0.80002 -0.80417
C 7.76120 -0.53762 -2.12068
C 7.86214 -1.81122 -2.92576
C 8.08180 -2.97948 -1.85594
C 7.97601 -2.15422 -0.55473
C 6.65318 -2.14301 -3.80024
C 9.32381 -3.89094 -2.05423
C 10.58913 -3.09634 -1.82404
N 7.89872 -0.82991 2.10970
C 7.89175 -2.22620 1.89894
C 7.78392 -2.86627 3.22601
C 7.71188 -1.78913 4.12214
C 7.75031 -0.56421 3.40270
C 7.71505 -4.26676 3.47098
C 7.60134 -1.40981 5.51232
O 7.61697 -2.01695 6.58231
C 7.28227 0.14546 5.58796
C 8.20389 0.75973 6.60570
O 9.43161 0.79006 6.40975
O 7.47062 1.40028 7.53434
C 8.34064 2.03540 8.55977
H 6.14288 4.84114 0.60585
H 7.96182 0.65424 -3.65712
H 8.03841 -3.84972 0.71818
H 6.09181 3.02063 5.19468
H 6.24557 4.99327 3.18916
H 4.24138 2.85460 3.78030
H 4.34357 3.32760 2.07146
H 3.95724 4.55274 3.24170
H 8.43893 4.51611 4.00289
H 8.77345 3.24287 5.23258
H 6.77010 4.97505 6.27837
H 7.78400 5.99536 5.32135
H 6.79247 6.08360 -0.96738
H 6.60132 5.83680 -2.67084
H 8.23026 6.21965 -2.06523
H 7.72551 5.34829 -4.53442
H 9.08610 4.72630 -5.63380
H 9.38162 5.29802 -3.96670
H 8.71498 -1.78056 -3.59271
H 7.24057 -3.68807 -1.84792
H 6.90863 -2.26586 -4.86969
H 5.91517 -1.36221 -3.67283
H 6.10057 -3.03353 -3.50561
H 9.36754 -4.25260 -3.08449
H 9.32848 -4.76149 -1.40684
H 10.75045 -2.60449 -2.78797
H 11.41668 -3.75749 -1.57490
H 10.43013 -2.31113 -1.07584
H 8.36528 -4.46808 4.31192
H 8.00978 -4.83880 2.59367
H 6.64973 -4.37393 3.69204
H 6.23364 0.25148 5.86850
H 8.01497 1.65718 9.53371
H 8.25705 3.12517 8.38900
H 9.38922 1.76175 8.56649

