%nproc=24
%mem=175gb
#p cam-b3lyp/Def2SVP td=(nstates=5)

TDDFT excited states in gaussian

0 1
Mg 8.93729 0.79781 0.68645
C 6.25238 1.22659 3.02877
C 11.04338 1.92164 3.12284
C 11.25246 0.86055 -1.48230
C 6.54444 0.81360 -1.84727
N 8.57549 1.45757 2.76637
C 7.52262 1.51912 3.56763
C 7.85941 1.83865 5.04885
C 9.26387 2.58322 4.82090
C 9.67837 1.92598 3.50602
C 9.12134 4.07749 4.58386
C 8.03067 0.54220 5.91597
C 8.05416 0.77813 7.42777
H 7.44763 -0.22524 8.29832
N 10.90843 0.84093 0.91302
C 11.59530 1.31066 1.97549
C 13.01791 1.13648 1.64383
C 13.11757 0.67780 0.23159
C 11.73413 0.79790 -0.18282
C 14.11668 1.32331 2.64943
C 14.26972 0.22051 -0.61080
O 14.16638 0.09546 -1.88223
C 15.54852 0.01327 0.08434
N 8.92915 1.04405 -1.37792
C 10.06990 0.97753 -2.08659
C 9.78815 0.90715 -3.56850
C 8.20808 0.69555 -3.69583
C 7.82126 0.77290 -2.20259
C 10.20476 2.13118 -4.38372
C 7.72626 -0.52853 -4.52175
C 8.09618 -1.80963 -3.80948
N 6.77909 0.79819 0.58528
C 5.97973 0.83120 -0.57834
C 4.57351 0.93520 -0.13771
C 4.65450 0.97902 1.26229
C 6.01635 0.92774 1.66505
C 3.43854 1.02514 -0.99204
C 3.89820 1.06770 2.49064
O 2.70185 1.05055 2.77735
C 4.90598 1.35944 3.68464
C 4.57859 0.41631 4.80974
O 4.73814 -0.80950 4.67360
O 4.34005 1.12828 5.92624
C 4.02145 0.23630 7.07284
H 11.75611 2.47396 3.73590
H 12.00551 0.77371 -2.26897
H 5.73337 0.72523 -2.57324
H 7.16062 2.50517 5.54000
H 9.97223 2.34012 5.60861
H 8.08712 4.37370 4.49009
H 9.65822 4.28240 3.66690
H 9.64110 4.63488 5.36840
H 9.04420 0.14632 5.77183
H 7.27525 -0.18012 5.67467
H 7.70094 1.78182 7.69386
H 9.09323 0.76139 7.76550
H 13.75158 1.82081 3.55639
H 14.82830 2.03496 2.21699
H 14.64151 0.39316 2.87755
H 15.85235 0.93993 0.56544
H 16.22610 -0.39765 -0.66659
H 15.39742 -0.72127 0.88324
H 10.29336 0.06135 -4.01846
H 7.72136 1.54855 -4.19113
H 10.90133 1.88971 -5.20867
H 10.64738 2.85436 -3.71168
H 9.38340 2.69554 -4.82198
H 8.23188 -0.55471 -5.49016
H 6.65885 -0.52558 -4.71574
H 9.13569 -1.96861 -4.11152
H 7.45981 -2.62854 -4.13883
H 8.08622 -1.67229 -2.72196
H 2.68440 0.36916 -0.57796
H 3.68789 0.74990 -2.01470
H 3.20760 2.08962 -0.89813
H 4.77709 2.40295 3.97456
H 3.05278 0.55755 7.46800
H 4.89059 0.30325 7.75391
H 3.82602 -0.80750 6.85661

