%nproc=24
%mem=175gb
#p cam-b3lyp/Def2SVP td=(nstates=5)

TDDFT excited states in gaussian

0 1
Mg 0.00000 0.00000 0.00000
C -0.21700 -2.21800 2.80100
C -1.25500 2.44200 2.02600
C -0.24500 1.85000 -2.56400
C 0.14600 -2.82400 -2.03700
N -0.61700 -0.00900 2.12600
C -0.59400 -0.90800 3.10500
C -0.93600 -0.30900 4.50200
C -1.77300 0.96400 4.03200
C -1.15500 1.16800 2.66000
C -3.26300 0.68500 3.86300
C 0.34500 0.11000 5.29900
C 0.12400 0.39700 6.78700
H 1.16800 0.03300 7.73300
N -0.18500 1.96100 -0.15200
C -0.70300 2.80000 0.77700
C -0.62000 4.15600 0.19300
C -0.18700 4.01500 -1.22500
C -0.21400 2.58300 -1.38000
C -0.88700 5.40600 0.97400
C 0.18100 5.01300 -2.27700
O 0.30300 4.69000 -3.50800
C 0.31000 6.41400 -1.83700
N -0.26500 -0.41300 -2.02900
C -0.27900 0.56900 -2.93700
C -0.19600 0.02400 -4.33200
C 0.12400 -1.53300 -4.18000
C 0.08600 -1.63200 -2.63500
C -1.45100 0.20500 -5.19700
C 1.37300 -2.07000 -4.92300
C 2.62600 -1.49000 -4.30600
N 0.15000 -2.14400 0.30300
C 0.17300 -3.13600 -0.68800
C 0.17300 -4.43800 0.00400
C 0.13300 -4.11100 1.35800
C 0.08300 -2.69500 1.50200
C 0.14900 -5.71500 -0.62300
C 0.09600 -4.62900 2.71600
O 0.20800 -5.74700 3.22100
C -0.25500 -3.42800 3.70100
C 0.71700 -3.48200 4.84800
O 1.93100 -3.25500 4.66900
O 0.03800 -3.55600 6.00300
C 0.94300 -3.58300 7.18300
H -1.85900 3.22000 2.49700
H -0.21800 2.45300 -3.47400
H 0.27600 -3.74700 -2.60500
H -1.55400 -0.94900 5.13200
H -1.58500 1.83100 4.66500
H -3.48400 -0.37700 3.96900
H -3.51100 1.02700 2.85800
H -3.85200 1.30100 4.54300
H 0.66900 1.09600 4.96600
H 1.13000 -0.63900 5.18900
H -0.84400 0.02600 7.12500
H 0.06200 1.47700 6.92100
H -1.34400 5.18600 1.93800
H -1.65100 5.96300 0.43200
H 0.00700 6.02000 1.08400
H -0.63500 6.74400 -1.40500
H 0.66500 6.97000 -2.70400
H 1.04800 6.46600 -1.03600
H 0.60800 0.50100 -4.89100
H -0.69200 -2.15600 -4.54700
H -1.26700 0.74000 -6.12900
H -2.20400 0.71400 -4.59600
H -1.96700 -0.72000 -5.45300
H 1.35600 -1.75900 -5.96700
H 1.45200 -3.15700 -4.90200
H 2.71400 -0.52200 -4.79800
H 3.48700 -2.12100 -4.52900
H 2.49500 -1.30300 -3.24000
H 0.86700 -6.33300 -0.08400
H 0.40400 -5.64200 -1.68000
H -0.89100 -5.99900 -0.46300
H -1.28300 -3.58100 4.02800
H 0.69800 -4.47800 7.75500
H 0.83300 -2.61900 7.68000
H 2.00000 -3.75400 6.97600
Mg 8.94054 0.80964 0.68533
C 8.69317 -1.23066 3.62728
C 7.68484 3.37959 2.54359
C 8.72205 2.50459 -1.98802
C 9.07778 -2.13377 -1.17565
N 8.30953 0.93499 2.80155
C 8.31869 0.11250 3.83970
C 7.98023 0.78585 5.19676
C 7.14456 2.03963 4.64128
C 7.77089 2.15514 3.25310
C 5.66249 1.74845 4.47386
C 9.26409 1.24885 5.97094
C 9.02970 1.63226 7.43374
H 10.07224 1.32577 8.40926
N 8.76832 2.76845 0.41708
C 8.25626 3.66664 1.28446
C 8.33598 4.97031 0.60751
C 8.78471 4.74476 -0.79338
C 8.75511 3.29699 -0.84980
C 8.07904 6.27038 1.31263
C 9.16384 5.67801 -1.90311
O 9.29325 5.27013 -3.11129
C 9.28775 7.09989 -1.55040
N 8.69186 0.27327 -1.30786
C 8.68204 1.20401 -2.27820
C 8.76826 0.56792 -3.64507
C 9.08306 -0.97758 -3.38065
C 9.03385 -0.98534 -1.83698
C 7.51811 0.69063 -4.51597
C 10.33476 -1.57108 -4.08326
C 11.58998 -0.95552 -3.50803
N 9.08187 -1.30158 1.12219
C 9.09949 -2.36543 0.19375
C 9.08891 -3.62175 0.97092
C 9.04225 -3.19838 2.30773
C 9.00457 -1.77873 2.35945
C 9.07232 -4.93674 0.42627
C 9.00556 -3.62981 3.68658
O 9.10181 -4.71384 4.26047
C 8.65023 -2.37750 4.59864
C 9.61475 -2.35474 5.75263
O 10.82720 -2.15681 5.55918
O 8.92191 -2.35293 6.90603
C 9.83486 -2.31956 8.07958
H 7.08790 4.18589 2.97072
H 8.75786 3.04250 -2.93821
H 9.21804 -3.09252 -1.67944
H 7.36192 0.19030 5.85766
H 7.34190 2.93541 5.22437
H 5.43475 0.70677 4.64466
H 5.42117 2.02659 3.45629
H 5.07347 2.41051 5.11501
H 9.59224 2.21772 5.57302
H 10.03409 0.50441 5.91142
H 8.05185 1.29347 7.79706
H 8.97867 2.72157 7.50307
H 7.60815 6.11137 2.29058
H 7.32140 6.80575 0.73019
H 8.97306 6.89319 1.38682
H 8.34394 7.45449 -1.14302
H 9.65196 7.59423 -2.45309
H 10.03199 7.19880 -0.75231
H 9.57826 0.99795 -4.22134
H 8.26306 -1.62505 -3.72446
H 7.71187 1.17421 -5.49202
H 6.76854 1.23969 -3.96170
H 7.00822 -0.24786 -4.72680
H 10.32600 -1.32132 -5.14707
H 10.40165 -2.65119 -4.00659
H 11.67977 -0.01574 -4.06107
H 12.44839 -1.60064 -3.68407
H 11.45544 -0.70362 -2.44969
H 9.77717 -5.52129 1.00246
H 9.32884 -4.93241 -0.63106
H 8.02549 -5.20396 0.59360
H 7.61795 -2.49605 4.93016
H 9.57865 -3.17799 8.70819
H 9.71207 -1.31449 8.52512
H 10.88887 -2.49617 7.89981

