%nproc=24
%mem=175gb
#p cam-b3lyp/Def2SVP td=(nstates=5)

TDDFT excited states in gaussian

0 1
Mg 7.87409 0.71203 0.59383
C 7.60424 -2.07485 -1.65106
C 7.91734 2.73070 -2.15530
C 8.56302 3.14327 2.51265
C 8.94546 -1.53475 3.03306
N 7.76744 0.26734 -1.57023
C 7.60426 -0.82399 -2.30283
C 7.35092 -0.55470 -3.81043
C 8.03801 0.89302 -3.91488
C 7.87001 1.34836 -2.46673
C 9.52398 0.83281 -4.22730
C 5.82205 -0.49131 -4.15763
C 5.49957 -0.54004 -5.65275
H 4.29137 -1.23911 -6.08176
N 7.70945 2.66763 0.29873
C 7.72388 3.31604 -0.88476
C 7.59092 4.74517 -0.56216
C 7.66252 4.90099 0.91612
C 8.00954 3.54942 1.30714
C 7.33625 5.79449 -1.60500
C 7.46547 6.07536 1.82620
O 7.81029 6.03635 3.06006
C 6.94341 7.30311 1.20850
N 8.84254 0.82867 2.42981
C 8.96245 2.00234 3.07484
C 9.44471 1.79947 4.49140
C 9.39232 0.22071 4.74113
C 8.95449 -0.24358 3.33467
C 10.85062 2.31625 4.79593
C 8.57756 -0.27097 5.96876
C 7.10591 -0.00023 5.75350
N 8.04615 -1.43503 0.76284
C 8.54338 -2.16689 1.86340
C 8.57094 -3.58890 1.46394
C 8.10584 -3.58300 0.14026
C 7.82847 -2.24915 -0.26395
C 9.03163 -4.66987 2.26730
C 7.79653 -4.40074 -1.01053
O 7.75310 -5.61054 -1.23014
C 7.57792 -3.44768 -2.26364
C 6.31727 -3.87954 -2.96133
O 5.21385 -3.76947 -2.39833
O 6.59617 -4.14595 -4.25036
C 5.37492 -4.56785 -4.98682
H 8.16787 3.43339 -2.95050
H 8.71626 3.93358 3.25116
H 9.17377 -2.30792 3.76977
H 7.84010 -1.24791 -4.48417
H 7.48523 1.54507 -4.58617
H 9.89844 -0.17993 -4.21074
H 10.00922 1.42812 -3.46495
H 9.73000 1.33383 -5.17749
H 5.44114 0.50927 -3.91578
H 5.28283 -1.26485 -3.64626
H 6.36170 -0.86067 -6.25014
H 5.29791 0.47703 -5.99758
H 7.49825 5.40346 -2.61705
H 8.10932 6.56086 -1.48294
H 6.35506 6.26253 -1.50075
H 7.61559 7.62248 0.41563
H 6.78664 8.00124 2.03306
H 5.98272 7.07463 0.73363
H 8.78592 2.28908 5.19806
H 10.39482 -0.19820 4.91242
H 10.87703 3.04520 5.62780
H 11.25621 2.75418 3.89357
H 11.58480 1.54712 5.02965
H 8.86786 0.28533 6.86342
H 8.71673 -1.32484 6.18555
H 7.00057 1.04587 6.05628
H 6.50071 -0.65464 6.37761
H 6.84545 -0.06356 4.69057
H 8.31967 -5.47507 2.14378
H 9.12538 -4.37768 3.31115
H 10.00432 -4.85627 1.80427
H 8.45455 -3.54403 -2.90538
H 5.59370 -5.54092 -5.43735
H 5.13908 -3.73528 -5.67599
H 4.49204 -4.79906 -4.40243

