%nproc=24
%mem=175gb
#p cam-b3lyp/Def2SVP td=(nstates=5)

TDDFT excited states in gaussian

0 1
Mg 0.00000 0.00000 0.00000
C -0.21700 -2.21800 2.80100
C -1.25500 2.44200 2.02600
C -0.24500 1.85000 -2.56400
C 0.14600 -2.82400 -2.03700
N -0.61700 -0.00900 2.12600
C -0.59400 -0.90800 3.10500
C -0.93600 -0.30900 4.50200
C -1.77300 0.96400 4.03200
C -1.15500 1.16800 2.66000
C -3.26300 0.68500 3.86300
C 0.34500 0.11000 5.29900
C 0.12400 0.39700 6.78700
H 1.16800 0.03300 7.73300
N -0.18500 1.96100 -0.15200
C -0.70300 2.80000 0.77700
C -0.62000 4.15600 0.19300
C -0.18700 4.01500 -1.22500
C -0.21400 2.58300 -1.38000
C -0.88700 5.40600 0.97400
C 0.18100 5.01300 -2.27700
O 0.30300 4.69000 -3.50800
C 0.31000 6.41400 -1.83700
N -0.26500 -0.41300 -2.02900
C -0.27900 0.56900 -2.93700
C -0.19600 0.02400 -4.33200
C 0.12400 -1.53300 -4.18000
C 0.08600 -1.63200 -2.63500
C -1.45100 0.20500 -5.19700
C 1.37300 -2.07000 -4.92300
C 2.62600 -1.49000 -4.30600
N 0.15000 -2.14400 0.30300
C 0.17300 -3.13600 -0.68800
C 0.17300 -4.43800 0.00400
C 0.13300 -4.11100 1.35800
C 0.08300 -2.69500 1.50200
C 0.14900 -5.71500 -0.62300
C 0.09600 -4.62900 2.71600
O 0.20800 -5.74700 3.22100
C -0.25500 -3.42800 3.70100
C 0.71700 -3.48200 4.84800
O 1.93100 -3.25500 4.66900
O 0.03800 -3.55600 6.00300
C 0.94300 -3.58300 7.18300
H -1.85900 3.22000 2.49700
H -0.21800 2.45300 -3.47400
H 0.27600 -3.74700 -2.60500
H -1.55400 -0.94900 5.13200
H -1.58500 1.83100 4.66500
H -3.48400 -0.37700 3.96900
H -3.51100 1.02700 2.85800
H -3.85200 1.30100 4.54300
H 0.66900 1.09600 4.96600
H 1.13000 -0.63900 5.18900
H -0.84400 0.02600 7.12500
H 0.06200 1.47700 6.92100
H -1.34400 5.18600 1.93800
H -1.65100 5.96300 0.43200
H 0.00700 6.02000 1.08400
H -0.63500 6.74400 -1.40500
H 0.66500 6.97000 -2.70400
H 1.04800 6.46600 -1.03600
H 0.60800 0.50100 -4.89100
H -0.69200 -2.15600 -4.54700
H -1.26700 0.74000 -6.12900
H -2.20400 0.71400 -4.59600
H -1.96700 -0.72000 -5.45300
H 1.35600 -1.75900 -5.96700
H 1.45200 -3.15700 -4.90200
H 2.71400 -0.52200 -4.79800
H 3.48700 -2.12100 -4.52900
H 2.49500 -1.30300 -3.24000
H 0.86700 -6.33300 -0.08400
H 0.40400 -5.64200 -1.68000
H -0.89100 -5.99900 -0.46300
H -1.28300 -3.58100 4.02800
H 0.69800 -4.47800 7.75500
H 0.83300 -2.61900 7.68000
H 2.00000 -3.75400 6.97600
Mg 31.52248 2.84138 2.39329
C 30.48673 0.02297 0.42787
C 30.77364 4.80210 -0.29547
C 32.84481 5.28198 3.93027
C 33.22781 0.60398 4.45038
N 30.73775 2.35835 0.38253
C 30.32285 1.25976 -0.23010
C 29.62353 1.50866 -1.59339
C 30.28802 2.92667 -1.94916
C 30.59043 3.41668 -0.53455
C 31.60174 2.80348 -2.70301
C 28.06494 1.62361 -1.45348
C 27.29414 1.55767 -2.77382
H 25.99192 0.89698 -2.78729
N 31.33383 4.79562 2.10361
C 31.00081 5.41945 0.95417
C 31.01756 6.85873 1.25809
C 31.54795 7.04093 2.63657
C 31.95790 5.68507 2.94262
C 30.48446 7.89617 0.31313
C 31.67794 8.23975 3.52657
O 32.38643 8.21202 4.59433
C 31.02771 9.47412 3.06285
N 33.01477 2.95720 3.83620
C 33.36393 4.13795 4.37642
C 34.25465 3.94486 5.58046
C 34.23438 2.37452 5.88245
C 33.36883 1.89957 4.69475
C 35.70073 4.41340 5.42015
C 33.82518 1.93877 7.31609
C 32.36808 2.26131 7.55740
N 31.67335 0.69307 2.56668
C 32.46445 -0.03535 3.48191
C 32.32396 -1.46500 3.13724
C 31.47234 -1.46752 2.02224
C 31.12397 -0.13229 1.68269
C 32.97777 -2.54669 3.79191
C 30.79738 -2.29544 1.04876
O 30.65151 -3.50680 0.89048
C 30.23055 -1.35971 -0.10428
C 28.80338 -1.75674 -0.36518
O 27.93231 -1.59341 0.50727
O 28.66135 -2.05909 -1.66855
C 27.25993 -2.44846 -1.97878
H 30.78686 5.47881 -1.15032
H 33.24298 6.08032 4.56083
H 33.64944 -0.16263 5.10399
H 29.85890 0.78403 -2.36365
H 29.57459 3.58598 -2.43670
H 31.93211 1.77768 -2.77180
H 32.31693 3.39476 -2.14629
H 31.51857 3.27735 -3.68528
H 27.80806 2.64262 -1.13666
H 27.68735 0.88155 -0.77717
H 27.91888 1.19253 -3.59803
H 27.02652 2.57469 -3.07057
H 30.31329 7.47927 -0.68702
H 31.28016 8.63466 0.16704
H 29.59837 8.40338 0.70075
H 31.43078 9.75177 2.09182
H 31.15511 10.19392 3.87373
H 29.96076 9.27321 2.91495
H 33.86210 4.47322 6.44061
H 35.22750 1.92103 5.74868
H 36.00540 5.15713 6.18049
H 35.82011 4.81754 4.42368
H 36.44756 3.62152 5.43930
H 34.39487 2.50116 8.05995
H 33.99266 0.88485 7.51154
H 32.39336 3.31645 7.84570
H 31.96630 1.64302 8.35761
H 31.78959 2.18696 6.62925
H 32.23851 -3.32635 3.91893
H 33.39885 -2.23770 4.74637
H 33.75323 -2.77930 3.05719
H 30.86212 -1.50221 -0.98200
H 27.29894 -3.43790 -2.44478
H 26.84764 -1.62127 -2.58668
H 26.59475 -2.63410 -1.14361

