%nproc=24
%mem=175gb
#p cam-b3lyp/Def2SVP td=(nstates=5)

TDDFT excited states in gaussian

0 1
Mg 13.13018 1.18135 1.00437
C 13.61304 3.80823 3.40133
C 13.32218 -1.02093 3.60201
C 13.15845 -1.17243 -1.12316
C 14.10861 3.44095 -1.46192
N 13.43009 1.47698 3.17575
C 13.53985 2.52387 3.97970
C 13.49228 2.18064 5.49280
C 13.97652 0.65186 5.40793
C 13.51967 0.32930 3.98669
C 15.48666 0.49450 5.47150
C 12.04387 2.29232 6.08579
C 11.97151 2.27348 7.61424
H 10.95676 3.09117 8.27314
N 12.74055 -0.75228 1.22315
C 12.85017 -1.48166 2.35330
C 12.46813 -2.85379 1.98523
C 12.28287 -2.90930 0.50966
C 12.75058 -1.58972 0.13544
C 12.23610 -3.93415 3.00130
C 11.78133 -3.97827 -0.41336
O 11.92910 -3.89467 -1.68379
C 11.19573 -5.16910 0.21948
N 13.77053 1.07355 -0.97064
C 13.62071 -0.05548 -1.68533
C 13.89705 0.18552 -3.15024
C 14.02867 1.77158 -3.30735
C 13.88807 2.18516 -1.82594
C 15.15036 -0.48684 -3.71018
C 13.10779 2.45376 -4.35582
C 11.66529 2.36257 -3.91279
N 13.57391 3.29410 0.91824
C 13.98921 4.03312 -0.21113
C 14.27937 5.40636 0.24980
C 14.03288 5.36465 1.63037
C 13.63781 4.05253 2.00689
C 14.75501 6.47363 -0.56311
C 14.02730 6.12957 2.85657
O 14.18981 7.31540 3.14143
C 13.87726 5.12432 4.07860
C 12.81602 5.66505 4.99725
O 11.63321 5.74144 4.62077
O 13.32957 5.79794 6.23377
C 12.31157 6.32084 7.18354
H 13.59364 -1.80648 4.30777
H 13.08041 -1.91996 -1.91600
H 14.32431 4.22939 -2.18615
H 14.17431 2.75298 6.11009
H 13.45041 0.03034 6.12786
H 15.99260 1.44813 5.44428
H 15.75681 -0.10184 4.60984
H 15.76747 -0.09717 6.34752
H 11.49255 1.37041 5.86022
H 11.54502 3.16491 5.71114
H 12.95356 2.43428 8.07540
H 11.68566 1.26902 7.93576
H 12.60921 -3.64256 3.99083
H 12.86455 -4.78396 2.71364
H 11.19477 -4.26116 3.03810
H 11.93290 -5.63055 0.87226
H 10.81410 -5.77871 -0.60187
H 10.36389 -4.85238 0.85849
H 13.07271 -0.16095 -3.76139
H 15.04043 2.06734 -3.62152
H 14.94226 -1.15031 -4.57075
H 15.62754 -1.03869 -2.91125
H 15.93931 0.19479 -4.02343
H 13.17202 1.93111 -5.31334
H 13.35795 3.49341 -4.53898
H 11.36730 1.36412 -4.24651
H 11.06740 3.13422 -4.39353
H 11.58740 2.38162 -2.81952
H 14.19199 7.35374 -0.28219
H 14.64076 6.24868 -1.62146
H 15.80502 6.49708 -0.25946
H 14.84890 5.05824 4.56964
H 12.73347 7.22149 7.64018
H 12.07263 5.47813 7.85919
H 11.38896 6.70742 6.76663

