%nproc=24
%mem=175gb
#p cam-b3lyp/Def2SVP td=(nstates=5)

TDDFT excited states in gaussian

0 1
Mg 15.76184 1.42711 1.20342
C 18.01660 1.57619 3.99141
C 13.29029 0.68378 3.43355
C 13.84946 0.84625 -1.26090
C 18.54987 1.04791 -0.85298
N 15.77550 1.18941 3.40241
C 16.67797 1.33032 4.36160
C 16.09964 1.28015 5.80125
C 14.76576 0.43986 5.49541
C 14.57039 0.81685 4.02830
C 14.96923 -1.06377 5.57917
C 15.76396 2.70719 6.36061
C 15.48789 2.75972 7.86486
H 15.92252 3.93700 8.61159
N 13.78173 1.33358 1.10854
C 12.93179 1.04043 2.11499
C 11.58360 1.08093 1.52772
C 11.71802 1.25979 0.05644
C 13.15339 1.12978 -0.09486
C 10.33311 1.03492 2.35693
C 10.71867 1.49458 -1.03552
O 11.03432 1.38241 -2.27270
C 9.33745 1.76799 -0.61246
N 16.12390 0.79669 -0.74435
C 15.11906 0.67393 -1.62932
C 15.64707 0.47695 -3.03031
C 17.22241 0.73582 -2.93608
C 17.35139 0.95996 -1.41341
C 15.39356 -0.89729 -3.64967
C 17.81865 1.80375 -3.89352
C 17.31372 3.17706 -3.51346
N 17.90566 1.51054 1.45863
C 18.89128 1.29684 0.47022
C 20.20377 1.34495 1.14660
C 19.88708 1.56211 2.49606
C 18.47601 1.62344 2.65296
C 21.46848 1.14973 0.52329
C 20.42525 1.74280 3.82512
O 21.55520 1.87071 4.29480
C 19.23406 1.63374 4.87181
C 19.35135 2.78662 5.83078
O 19.19853 3.95575 5.43531
O 19.40783 2.31016 7.08782
C 19.51359 3.41651 8.07607
H 12.49239 0.22363 4.01708
H 13.23958 0.74720 -2.16184
H 19.47091 1.03636 -1.43968
H 16.71505 0.75228 6.51986
H 13.93038 0.79309 6.09436
H 16.00877 -1.32271 5.71506
H 14.59893 -1.46327 4.64413
H 14.33247 -1.48735 6.36112
H 14.78366 3.02001 5.97864
H 16.53825 3.40621 6.11069
H 15.80612 1.84221 8.37463
H 14.40645 2.79030 8.01834
H 10.54658 0.73534 3.39042
H 9.71614 0.22138 1.96024
H 9.76304 1.96530 2.31140
H 8.97057 0.93527 -0.01711
H 8.79092 1.99716 -1.52933
H 9.33957 2.64635 0.04260
H 15.21268 1.19767 -3.71220
H 17.79908 -0.17109 -3.17017
H 14.84347 -0.84919 -4.60840
H 14.85442 -1.50103 -2.93179
H 16.28589 -1.49436 -3.82983
H 17.48434 1.62271 -4.91803
H 18.90341 1.81515 -3.90601
H 16.33823 3.22649 -4.00647
H 17.98417 3.94856 -3.88674
H 17.14110 3.24788 -2.43326
H 22.13132 1.90722 0.91998
H 21.39210 1.21498 -0.56007
H 21.69636 0.13430 0.85831
H 19.32780 0.67097 5.37566
H 20.40596 3.22208 8.67904
H 18.54262 3.43783 8.60569
H 19.72693 4.40891 7.69649

