%nproc=24
%mem=175gb
#p cam-b3lyp/Def2SVP td=(nstates=5)

TDDFT excited states in gaussian

0 1
Mg 7.88960 0.71801 0.60006
C 7.34964 1.48773 4.06345
C 6.77792 3.86182 -0.11775
C 7.92558 -0.07785 -2.47121
C 7.85649 -2.65207 1.48726
N 7.18387 2.36881 1.89199
C 7.08075 2.56802 3.19737
C 6.74388 4.02871 3.60046
C 6.04026 4.49864 2.23556
C 6.73127 3.54473 1.26333
C 4.54722 4.21764 2.20041
C 8.02876 4.87602 3.90564
C 7.76675 6.21381 4.60092
H 8.73840 6.69086 5.58112
N 7.89376 1.86047 -1.02269
C 7.42330 3.12064 -1.13188
C 7.64029 3.51106 -2.53354
C 8.12637 2.32034 -3.28227
C 7.97768 1.29381 -2.27024
C 7.46431 4.91937 -3.02253
C 8.62835 2.13377 -4.68206
O 8.77319 0.96844 -5.19574
C 8.85643 3.35693 -5.46522
N 7.67987 -1.09906 -0.38816
C 7.78861 -1.17490 -1.72620
C 7.87789 -2.61061 -2.18572
C 8.05054 -3.47819 -0.85340
C 7.93669 -2.35263 0.19805
C 6.67977 -3.13069 -2.97970
C 9.27612 -4.43016 -0.78736
C 10.55358 -3.62374 -0.73108
N 7.83486 -0.40404 2.44562
C 7.80170 -1.80843 2.58937
C 7.65335 -2.09513 4.03097
C 7.58684 -0.82736 4.62833
C 7.66638 0.17839 3.62751
C 7.54907 -3.38882 4.61544
C 7.45674 -0.11128 5.87693
O 7.43767 -0.43226 7.06451
C 7.17019 1.41855 5.55464
C 8.08438 2.25253 6.40977
O 9.31616 2.21321 6.24303
O 7.34677 3.11634 7.13096
C 8.20969 3.97325 7.98706
H 6.23354 4.73955 -0.46722
H 8.04592 -0.40772 -3.50571
H 7.93658 -3.67746 1.85447
H 6.05079 4.12330 4.42779
H 6.28770 5.53009 1.99840
H 4.22592 3.63927 3.05387
H 4.37264 3.66898 1.28415
H 3.98972 5.15352 2.10218
H 8.45337 5.23592 2.95964
H 8.73534 4.30476 4.47576
H 6.74965 6.27519 5.00674
H 7.80453 7.00782 3.85116
H 6.94147 5.53931 -2.28380
H 6.77919 4.87819 -3.87621
H 8.40361 5.37381 -3.34482
H 7.92961 3.92188 -5.53072
H 9.29810 3.02331 -6.40624
H 9.57251 3.98827 -4.92739
H 8.74440 -2.76115 -2.81786
H 7.19408 -4.14871 -0.68996
H 6.95387 -3.52073 -3.97811
H 5.95655 -2.33102 -3.06928
H 6.10209 -3.91044 -2.48627
H 9.33261 -5.03823 -1.69357
H 9.24884 -5.11150 0.05646
H 10.74488 -3.39076 -1.78284
H 11.36137 -4.21500 -0.30454
H 10.39676 -2.67415 -0.20635
H 8.17777 -3.38428 5.49591
H 7.84880 -4.16643 3.91597
H 6.47745 -3.42025 4.82968
H 6.11870 1.60813 5.77375
H 7.85638 3.85544 9.01613
H 8.15330 4.98709 7.54808
H 9.25171 3.69310 8.08782

