%nproc=24
%mem=175gb
#p cam-b3lyp/Def2SVP td=(nstates=5)

TDDFT excited states in gaussian

0 1
Mg 0.00000 0.00000 0.00000
C -0.21700 -2.21800 2.80100
C -1.25500 2.44200 2.02600
C -0.24500 1.85000 -2.56400
C 0.14600 -2.82400 -2.03700
N -0.61700 -0.00900 2.12600
C -0.59400 -0.90800 3.10500
C -0.93600 -0.30900 4.50200
C -1.77300 0.96400 4.03200
C -1.15500 1.16800 2.66000
C -3.26300 0.68500 3.86300
C 0.34500 0.11000 5.29900
C 0.12400 0.39700 6.78700
H 1.16800 0.03300 7.73300
N -0.18500 1.96100 -0.15200
C -0.70300 2.80000 0.77700
C -0.62000 4.15600 0.19300
C -0.18700 4.01500 -1.22500
C -0.21400 2.58300 -1.38000
C -0.88700 5.40600 0.97400
C 0.18100 5.01300 -2.27700
O 0.30300 4.69000 -3.50800
C 0.31000 6.41400 -1.83700
N -0.26500 -0.41300 -2.02900
C -0.27900 0.56900 -2.93700
C -0.19600 0.02400 -4.33200
C 0.12400 -1.53300 -4.18000
C 0.08600 -1.63200 -2.63500
C -1.45100 0.20500 -5.19700
C 1.37300 -2.07000 -4.92300
C 2.62600 -1.49000 -4.30600
N 0.15000 -2.14400 0.30300
C 0.17300 -3.13600 -0.68800
C 0.17300 -4.43800 0.00400
C 0.13300 -4.11100 1.35800
C 0.08300 -2.69500 1.50200
C 0.14900 -5.71500 -0.62300
C 0.09600 -4.62900 2.71600
O 0.20800 -5.74700 3.22100
C -0.25500 -3.42800 3.70100
C 0.71700 -3.48200 4.84800
O 1.93100 -3.25500 4.66900
O 0.03800 -3.55600 6.00300
C 0.94300 -3.58300 7.18300
H -1.85900 3.22000 2.49700
H -0.21800 2.45300 -3.47400
H 0.27600 -3.74700 -2.60500
H -1.55400 -0.94900 5.13200
H -1.58500 1.83100 4.66500
H -3.48400 -0.37700 3.96900
H -3.51100 1.02700 2.85800
H -3.85200 1.30100 4.54300
H 0.66900 1.09600 4.96600
H 1.13000 -0.63900 5.18900
H -0.84400 0.02600 7.12500
H 0.06200 1.47700 6.92100
H -1.34400 5.18600 1.93800
H -1.65100 5.96300 0.43200
H 0.00700 6.02000 1.08400
H -0.63500 6.74400 -1.40500
H 0.66500 6.97000 -2.70400
H 1.04800 6.46600 -1.03600
H 0.60800 0.50100 -4.89100
H -0.69200 -2.15600 -4.54700
H -1.26700 0.74000 -6.12900
H -2.20400 0.71400 -4.59600
H -1.96700 -0.72000 -5.45300
H 1.35600 -1.75900 -5.96700
H 1.45200 -3.15700 -4.90200
H 2.71400 -0.52200 -4.79800
H 3.48700 -2.12100 -4.52900
H 2.49500 -1.30300 -3.24000
H 0.86700 -6.33300 -0.08400
H 0.40400 -5.64200 -1.68000
H -0.89100 -5.99900 -0.46300
H -1.28300 -3.58100 4.02800
H 0.69800 -4.47800 7.75500
H 0.83300 -2.61900 7.68000
H 2.00000 -3.75400 6.97600
Mg 15.76788 1.42203 1.18752
C 18.24527 -0.99652 0.24297
C 18.03905 3.83890 0.39057
C 13.78058 3.56004 2.43129
C 14.16076 -1.11823 2.95103
N 17.84104 1.31055 0.42475
C 18.65617 0.33815 0.04484
C 19.95315 0.82331 -0.65661
C 20.02515 2.30151 -0.03321
C 18.54023 2.52019 0.24941
C 20.77650 2.36223 1.28631
C 19.80823 0.86501 -2.21843
C 21.12388 1.03103 -2.98215
H 21.27541 0.34838 -4.26414
N 15.68038 3.38943 0.94202
C 16.69240 4.21194 0.59480
C 16.11883 5.56636 0.56774
C 14.72611 5.49643 1.08750
C 14.68110 4.11928 1.53638
C 16.85293 6.74985 0.00751
C 13.62219 6.50602 1.17864
O 12.57294 6.29464 1.88378
C 13.84739 7.78731 0.49376
N 14.31573 1.30200 2.67049
C 13.55657 2.36702 2.98250
C 12.40347 1.97251 3.87420
C 12.40743 0.37347 3.89944
C 13.67195 0.11015 3.05266
C 12.45791 2.50399 5.30631
C 11.08735 -0.34000 3.49816
C 10.80229 -0.11115 2.03128
N 16.00695 -0.71459 1.40143
C 15.24058 -1.58188 2.21049
C 15.85346 -2.92257 2.11372
C 16.95619 -2.73590 1.26659
C 17.03744 -1.37083 0.87999
C 15.41162 -4.09051 2.79697
C 18.07617 -3.38111 0.62002
O 18.46442 -4.54346 0.51073
C 19.03426 -2.25855 0.02985
C 19.37939 -2.63873 -1.38396
O 18.49988 -2.67018 -2.26265
O 20.71778 -2.69003 -1.51224
C 21.10963 -3.05252 -2.90036
H 18.74862 4.66677 0.38679
H 13.00540 4.23397 2.80331
H 13.66189 -1.98344 3.39286
H 20.84551 0.26645 -0.39706
H 20.38423 3.02137 -0.76412
H 21.03705 1.37836 1.64721
H 20.11044 2.85616 1.98162
H 21.65080 3.01274 1.19267
H 19.30485 1.79685 -2.50657
H 19.28975 -0.00318 -2.57628
H 21.99689 0.84826 -2.34388
H 21.22321 2.07802 -3.27875
H 17.91587 6.52733 -0.14759
H 16.84781 7.52497 0.78148
H 16.38369 7.14813 -0.89463
H 14.74368 8.25698 0.89192
H 12.91273 8.34198 0.59681
H 14.04080 7.58816 -0.56622
H 11.46185 2.31515 3.46304
H 12.61625 -0.01762 4.90606
H 11.56665 3.09685 5.58603
H 13.35761 3.09455 5.41726
H 12.58360 1.74463 6.07624
H 10.24449 0.08564 4.04822
H 11.09544 -1.40664 3.69614
H 10.31740 0.86963 2.02420
H 10.13877 -0.88229 1.64512
H 11.73284 -0.02294 1.45861
H 15.44280 -4.90076 2.08071
H 14.41186 -3.95800 3.20523
H 16.17007 -4.15609 3.58164
H 19.91716 -2.21246 0.66854
H 21.75579 -3.93300 -2.83033
H 21.55198 -2.13636 -3.33480
H 20.33152 -3.41337 -3.56276

