%nproc=24
%mem=175gb
#p cam-b3lyp/Def2SVP td=(nstates=5)

TDDFT excited states in gaussian

0 1
Mg 8.93963 0.81046 0.68542
C 9.18731 -1.36437 3.52933
C 7.28074 3.00830 2.69842
C 8.31009 2.54553 -1.89540
C 9.57252 -1.96849 -1.32023
N 8.36917 0.72065 2.82055
C 8.57077 -0.12875 3.81665
C 8.15666 0.40773 5.21317
C 7.07844 1.50017 4.74106
C 7.62326 1.79379 3.34477
C 5.67438 0.93690 4.59721
C 9.35425 1.07515 5.97628
C 9.10121 1.34282 7.46157
H 10.21589 1.20075 8.39419
N 8.38749 2.70930 0.51779
C 7.74337 3.45395 1.44077
C 7.54947 4.77659 0.82662
C 7.98475 4.70223 -0.59455
C 8.23021 3.27961 -0.72097
C 7.07333 5.97132 1.60080
C 8.14047 5.73800 -1.66653
O 8.30391 5.41515 -2.89612
C 8.00262 7.14059 -1.24793
N 8.72981 0.32281 -1.32468
C 8.50922 1.27529 -2.24776
C 8.66843 0.72726 -3.64586
C 9.28140 -0.73879 -3.46544
C 9.28749 -0.82250 -1.92325
C 7.38877 0.64471 -4.47775
C 10.59858 -1.04959 -4.22775
C 11.73213 -0.22953 -3.65509
N 9.49635 -1.25102 1.01473
C 9.68496 -2.25053 0.03520
C 9.94108 -3.51778 0.74998
C 9.86027 -3.16940 2.10667
C 9.55402 -1.78708 2.22872
C 10.15723 -4.78666 0.14225
C 9.95389 -3.65893 3.46324
O 10.27495 -4.72795 3.98077
C 9.39744 -2.53889 4.44419
C 10.37883 -2.38088 5.57310
O 11.52382 -1.94531 5.35890
O 9.73831 -2.56214 6.74239
C 10.66775 -2.40450 7.89266
H 6.55582 3.66553 3.17949
H 8.20996 3.12078 -2.81873
H 9.87592 -2.85970 -1.87372
H 7.68645 -0.32357 5.85960
H 7.12097 2.39117 5.36210
H 5.65572 -0.13552 4.72255
H 5.34968 1.20708 3.60091
H 4.99211 1.44501 5.28471
H 9.47754 2.10530 5.61806
H 10.24972 0.49597 5.86092
H 8.21907 0.80694 7.83254
H 8.84554 2.39796 7.58539
H 6.67525 5.68265 2.58141
H 6.20791 6.37561 1.06464
H 7.83399 6.75064 1.68268
H 7.02299 7.28913 -0.79990
H 8.23460 7.73424 -2.13429
H 8.74117 7.34625 -0.46508
H 9.36120 1.32950 -4.22074
H 8.58883 -1.51643 -3.81963
H 7.45307 1.19821 -5.43356
H 6.56759 1.01492 -3.87846
H 7.06053 -0.36433 -4.72125
H 10.50585 -0.76050 -5.27750
H 10.87306 -2.09896 -4.20574
H 11.62182 0.73295 -4.16358
H 12.69138 -0.68931 -3.88418
H 11.58830 -0.05412 -2.58261
H 10.98004 -5.24905 0.67110
H 10.37183 -4.68744 -0.91977
H 9.18704 -5.25719 0.32278
H 8.41876 -2.86796 4.79557
H 10.60184 -3.32249 8.48480
H 10.37065 -1.46199 8.38981
H 11.72930 -2.36717 7.67781

