%nproc=24
%mem=175gb
#p cam-b3lyp/Def2SVP td=(nstates=5)

TDDFT excited states in gaussian

0 1
Mg 8.93673 0.80916 0.68777
C 7.66582 -1.54551 3.07929
C 6.80725 3.10512 2.04000
C 9.70382 2.77110 -1.68495
C 10.08648 -1.90730 -1.16819
N 7.47556 0.67727 2.34302
C 7.12322 -0.25115 3.21951
C 6.19530 0.25614 4.35580
C 5.56165 1.52397 3.60084
C 6.69553 1.81635 2.62027
C 4.31400 1.18671 2.80149
C 6.99670 0.68977 5.63320
C 6.14396 0.90234 6.88596
H 6.70922 0.53926 8.18254
N 8.72413 2.77583 0.52785
C 7.82309 3.55149 1.16641
C 8.06461 4.92281 0.69175
C 9.07218 4.86991 -0.40219
C 9.19301 3.43680 -0.58020
C 7.42751 6.12649 1.32316
C 9.79638 5.93339 -1.17080
O 10.45038 5.66437 -2.23979
C 9.64011 7.31304 -0.68744
N 9.58540 0.48033 -1.25990
C 9.89968 1.50892 -2.06684
C 10.60006 1.02844 -3.31544
C 10.90791 -0.52097 -3.06613
C 10.22285 -0.69736 -1.69319
C 9.81911 1.18844 -4.61963
C 12.38421 -0.97879 -3.21982
C 13.22922 -0.37346 -2.12213
N 9.06439 -1.32843 0.97490
C 9.55724 -2.28410 0.05953
C 9.33265 -3.61611 0.65763
C 8.69883 -3.34190 1.87893
C 8.52144 -1.93921 2.02209
C 9.65666 -4.86412 0.05462
C 8.12992 -3.92072 3.07476
O 8.07172 -5.05494 3.54793
C 7.32187 -2.79118 3.84780
C 7.71409 -2.84999 5.29874
O 8.87545 -2.57846 5.65104
O 6.60743 -3.00351 6.04848
C 6.94391 -3.05619 7.49617
H 6.02007 3.83320 2.23785
H 10.08476 3.40941 -2.48553
H 10.50500 -2.79890 -1.63996
H 5.41194 -0.43420 4.64486
H 5.42134 2.35955 4.28163
H 4.12618 0.12356 2.77728
H 4.49424 1.56191 1.80260
H 3.45748 1.74880 3.18458
H 7.37602 1.70958 5.48885
H 7.78260 -0.00880 5.84528
H 5.13658 0.48306 6.77490
H 5.97550 1.97446 7.01326
H 6.60852 5.84208 1.99530
H 6.93737 6.68721 0.51990
H 8.15290 6.77694 1.81652
H 8.58577 7.57916 -0.68947
H 10.30247 7.91761 -1.31006
H 9.97414 7.35841 0.35515
H 11.53606 1.55382 -3.46030
H 10.36366 -1.16353 -3.77376
H 10.35849 1.78264 -5.38126
H 8.86298 1.64053 -4.39167
H 9.52543 0.25635 -5.09938
H 12.79669 -0.61640 -4.16464
H 12.50560 -2.05680 -3.20782
H 13.45960 0.62355 -2.50943
H 14.13506 -0.95688 -1.97014
H 12.64618 -0.24342 -1.20299
H 10.10580 -5.47536 0.82609
H 10.32774 -4.73434 -0.79188
H 8.66206 -5.19427 -0.25689
H 6.25950 -2.99075 3.70249
H 6.52443 -3.98798 7.88797
H 6.56143 -2.11152 7.92635
H 7.98825 -3.16517 7.76436

