%nproc=24
%mem=175gb
#p cam-b3lyp/Def2SVP td=(nstates=5)

TDDFT excited states in gaussian

0 1
Mg 13.13487 1.18715 1.00700
C 10.89927 -1.38722 2.12675
C 10.44015 3.27590 0.90603
C 14.98479 3.34395 -0.40487
C 15.36834 -1.33428 0.11274
N 10.99763 0.86899 1.47951
C 10.27507 -0.13410 1.95498
C 8.82026 0.24688 2.33960
C 8.64903 1.53093 1.39052
C 10.11421 1.94617 1.27438
C 8.13809 1.18837 0.00094
C 8.68354 0.63033 3.85496
C 7.24495 0.71332 4.37005
H 6.97082 0.28993 5.74047
N 12.89834 3.14723 0.80521
C 11.73505 3.83133 0.81088
C 12.09716 5.24245 0.60649
C 13.55474 5.31523 0.31515
C 13.87210 3.90560 0.20423
C 11.11640 6.36659 0.77332
C 14.50314 6.46384 0.14949
O 15.67838 6.30206 -0.33577
C 13.98269 7.79735 0.48471
N 14.82522 1.02623 -0.19264
C 15.46828 2.12243 -0.63168
C 16.80317 1.76467 -1.24033
C 17.03049 0.21888 -0.89908
C 15.68815 -0.08568 -0.19855
C 16.92417 1.97557 -2.74939
C 18.34814 -0.15357 -0.16576
C 18.33798 0.41554 1.23474
N 13.24218 -0.95623 1.25691
C 14.25289 -1.82077 0.78242
C 13.82897 -3.20042 1.09751
C 12.58039 -3.04299 1.71781
C 12.24028 -1.66406 1.76645
C 14.54415 -4.38619 0.76800
C 11.46793 -3.73053 2.33295
O 11.23541 -4.89623 2.65047
C 10.27232 -2.69852 2.51148
C 9.74368 -2.83799 3.91276
O 10.45214 -2.53428 4.88870
O 8.42442 -3.09755 3.86222
C 7.85222 -3.23345 5.22822
H 9.63063 3.94870 0.62157
H 15.70938 4.05414 -0.80995
H 16.05413 -2.16933 -0.04557
H 8.07488 -0.49972 2.09311
H 8.06972 2.30949 1.88003
H 8.08658 0.12144 -0.15770
H 8.83817 1.64018 -0.68957
H 7.17755 1.67955 -0.17921
H 8.99172 1.67521 3.98912
H 9.24957 -0.04146 4.47053
H 6.53133 0.25336 3.67569
H 6.94800 1.76442 4.40230
H 10.08517 5.99621 0.82609
H 11.14625 6.95653 -0.14914
H 11.36003 7.01649 1.61649
H 13.11204 8.01045 -0.13093
H 14.83275 8.47555 0.38823
H 13.63785 7.78704 1.52471
H 17.60053 2.34450 -0.79187
H 17.05780 -0.39939 -1.80838
H 17.75730 2.64696 -3.03086
H 15.98303 2.36293 -3.11646
H 17.04349 1.06547 -3.33479
H 19.20491 0.29323 -0.67612
H 18.52602 -1.22250 -0.11340
H 18.67015 1.44710 1.08434
H 19.02665 -0.13144 1.87551
H 17.31895 0.45271 1.63707
H 14.50393 -5.02631 1.63929
H 15.57069 -4.16515 0.48316
H 13.95105 -4.74286 -0.07833
H 9.51667 -2.93992 1.76294
H 7.35965 -4.20971 5.27261
H 7.21558 -2.34086 5.37559
H 8.54627 -3.30886 6.05711

