%nproc=24
%mem=175gb
#p cam-b3lyp/Def2SVP td=(nstates=5)

TDDFT excited states in gaussian

0 1
Mg 0.00000 0.00000 0.00000
C -0.21700 -2.21800 2.80100
C -1.25500 2.44200 2.02600
C -0.24500 1.85000 -2.56400
C 0.14600 -2.82400 -2.03700
N -0.61700 -0.00900 2.12600
C -0.59400 -0.90800 3.10500
C -0.93600 -0.30900 4.50200
C -1.77300 0.96400 4.03200
C -1.15500 1.16800 2.66000
C -3.26300 0.68500 3.86300
C 0.34500 0.11000 5.29900
C 0.12400 0.39700 6.78700
H 1.16800 0.03300 7.73300
N -0.18500 1.96100 -0.15200
C -0.70300 2.80000 0.77700
C -0.62000 4.15600 0.19300
C -0.18700 4.01500 -1.22500
C -0.21400 2.58300 -1.38000
C -0.88700 5.40600 0.97400
C 0.18100 5.01300 -2.27700
O 0.30300 4.69000 -3.50800
C 0.31000 6.41400 -1.83700
N -0.26500 -0.41300 -2.02900
C -0.27900 0.56900 -2.93700
C -0.19600 0.02400 -4.33200
C 0.12400 -1.53300 -4.18000
C 0.08600 -1.63200 -2.63500
C -1.45100 0.20500 -5.19700
C 1.37300 -2.07000 -4.92300
C 2.62600 -1.49000 -4.30600
N 0.15000 -2.14400 0.30300
C 0.17300 -3.13600 -0.68800
C 0.17300 -4.43800 0.00400
C 0.13300 -4.11100 1.35800
C 0.08300 -2.69500 1.50200
C 0.14900 -5.71500 -0.62300
C 0.09600 -4.62900 2.71600
O 0.20800 -5.74700 3.22100
C -0.25500 -3.42800 3.70100
C 0.71700 -3.48200 4.84800
O 1.93100 -3.25500 4.66900
O 0.03800 -3.55600 6.00300
C 0.94300 -3.58300 7.18300
H -1.85900 3.22000 2.49700
H -0.21800 2.45300 -3.47400
H 0.27600 -3.74700 -2.60500
H -1.55400 -0.94900 5.13200
H -1.58500 1.83100 4.66500
H -3.48400 -0.37700 3.96900
H -3.51100 1.02700 2.85800
H -3.85200 1.30100 4.54300
H 0.66900 1.09600 4.96600
H 1.13000 -0.63900 5.18900
H -0.84400 0.02600 7.12500
H 0.06200 1.47700 6.92100
H -1.34400 5.18600 1.93800
H -1.65100 5.96300 0.43200
H 0.00700 6.02000 1.08400
H -0.63500 6.74400 -1.40500
H 0.66500 6.97000 -2.70400
H 1.04800 6.46600 -1.03600
H 0.60800 0.50100 -4.89100
H -0.69200 -2.15600 -4.54700
H -1.26700 0.74000 -6.12900
H -2.20400 0.71400 -4.59600
H -1.96700 -0.72000 -5.45300
H 1.35600 -1.75900 -5.96700
H 1.45200 -3.15700 -4.90200
H 2.71400 -0.52200 -4.79800
H 3.48700 -2.12100 -4.52900
H 2.49500 -1.30300 -3.24000
H 0.86700 -6.33300 -0.08400
H 0.40400 -5.64200 -1.68000
H -0.89100 -5.99900 -0.46300
H -1.28300 -3.58100 4.02800
H 0.69800 -4.47800 7.75500
H 0.83300 -2.61900 7.68000
H 2.00000 -3.75400 6.97600
Mg 13.13096 1.17946 1.00462
C 12.99510 3.90100 3.33996
C 13.92195 -0.84233 3.63545
C 13.69938 -1.14396 -1.08010
C 13.46168 3.55117 -1.52744
N 13.39440 1.59281 3.16147
C 13.25695 2.65320 3.94315
C 13.32908 2.34560 5.46294
C 14.17727 0.98380 5.39267
C 13.78476 0.52346 3.99027
C 15.67996 1.20873 5.41842
C 11.91169 2.10765 6.09255
C 11.87927 2.10835 7.62249
H 10.70713 2.66351 8.29358
N 13.24058 -0.78443 1.26863
C 13.55293 -1.43606 2.40841
C 13.51725 -2.86858 2.07555
C 13.31993 -3.00408 0.60673
C 13.43566 -1.61907 0.19633
C 13.58389 -3.94781 3.11681
C 13.08100 -4.18621 -0.28303
O 13.17585 -4.09920 -1.55828
C 12.82461 -5.46965 0.38670
N 13.73525 1.18669 -0.98463
C 13.85631 0.03896 -1.67455
C 14.03220 0.30567 -3.15047
C 13.76077 1.87032 -3.33965
C 13.55344 2.27158 -1.86269
C 15.40120 -0.04702 -3.73170
C 12.67650 2.27636 -4.37510
C 11.31220 1.83984 -3.89187
N 13.03190 3.33346 0.86849
C 13.22538 4.12505 -0.28478
C 13.17383 5.53802 0.14334
C 12.97533 5.46967 1.53057
C 12.92812 4.11001 1.94118
C 13.35069 6.67011 -0.70118
C 12.80562 6.23855 2.74248
O 12.67342 7.43405 3.00143
C 12.93734 5.25742 3.98603
C 11.79484 5.53911 4.92298
O 10.62252 5.30967 4.57713
O 12.28556 5.82545 6.14264
C 11.19004 6.10140 7.10986
H 14.39585 -1.51834 4.34771
H 13.79313 -1.90633 -1.85694
H 13.45832 4.35074 -2.27132
H 13.86000 3.08439 6.05124
H 13.83839 0.26851 6.13757
H 15.93143 2.25732 5.36042
H 16.07164 0.67772 4.56072
H 16.11824 0.72690 6.29711
H 11.60293 1.07239 5.89855
H 11.20307 2.81936 5.71577
H 12.79991 2.51955 8.05409
H 11.85991 1.07243 7.96964
H 13.89374 -3.54873 4.09053
H 14.39803 -4.62122 2.82773
H 12.65802 -4.52266 3.18749
H 13.66744 -5.71724 1.02763
H 12.58943 -6.17471 -0.41297
H 11.95403 -5.35453 1.04203
H 13.30731 -0.24969 -3.73289
H 14.65981 2.40084 -3.68619
H 15.34661 -0.76201 -4.57425
H 16.01802 -0.44330 -2.93606
H 15.98833 0.80171 -4.07829
H 12.84837 1.76314 -5.32443
H 12.65552 3.34081 -4.58365
H 11.26545 0.79088 -4.19940
H 10.53056 2.42660 -4.37021
H 11.25560 1.86532 -2.79743
H 12.59219 7.38897 -0.42115
H 13.27336 6.39830 -1.75185
H 14.36798 6.96143 -0.42635
H 13.90512 5.44708 4.45187
H 11.38378 7.08946 7.53867
H 11.18339 5.24233 7.80679
H 10.19142 6.23606 6.71101

