%nproc=24
%mem=175gb
#p cam-b3lyp/Def2SVP td=(nstates=5)

TDDFT excited states in gaussian

0 1
Mg 15.76663 1.42191 1.18737
C 18.07364 -1.04115 -0.03331
C 17.95169 3.79792 0.08524
C 13.97962 3.60015 2.64659
C 14.35997 -1.07809 3.16652
N 17.72603 1.27316 0.17205
C 18.47409 0.28548 -0.29620
C 19.67910 0.74515 -1.16003
C 19.84835 2.22791 -0.56703
C 18.41366 2.47080 -0.10297
C 20.76007 2.29005 0.64715
C 19.33992 0.77433 -2.69173
C 20.55142 0.91404 -3.61613
H 20.53183 0.21730 -4.89934
N 15.67511 3.38799 0.93294
C 16.64637 4.19241 0.45249
C 16.09194 5.55471 0.48249
C 14.77464 5.50992 1.17345
C 14.76807 4.13783 1.63971
C 16.76557 6.72211 -0.17845
C 13.70437 6.53627 1.39102
O 12.74918 6.34678 2.22441
C 13.85882 7.80768 0.66912
N 14.51058 1.33690 2.84190
C 13.81076 2.41572 3.23475
C 12.77354 2.04639 4.26827
C 12.75944 0.44777 4.31058
C 13.90410 0.15816 3.31496
C 13.01429 2.59040 5.67627
C 11.39010 -0.25015 4.08588
C 10.92628 -0.03092 2.66384
N 16.00231 -0.71586 1.39336
C 15.33209 -1.56430 2.30167
C 15.91015 -2.91461 2.14375
C 16.90025 -2.75194 1.16307
C 16.95043 -1.39187 0.75418
C 15.54210 -4.06956 2.88992
C 17.92158 -3.41940 0.38842
O 18.27761 -4.58824 0.24425
C 18.81284 -2.31646 -0.32961
C 18.97277 -2.71484 -1.77122
O 17.98962 -2.74172 -2.53233
O 20.28369 -2.78679 -2.06566
C 20.49342 -3.16792 -3.48783
H 18.66609 4.61532 -0.01664
H 13.26625 4.28873 3.10532
H 13.90905 -1.93177 3.67698
H 20.58952 0.17782 -1.00820
H 20.12239 2.93560 -1.34513
H 21.05079 1.30591 0.98346
H 20.19314 2.80009 1.41493
H 21.62426 2.92686 0.43745
H 18.81676 1.71066 -2.92484
H 18.76918 -0.08953 -2.97211
H 21.49512 0.72457 -3.09032
H 20.62662 1.95665 -3.93446
H 17.79759 6.48271 -0.46307
H 16.86788 7.50444 0.58140
H 16.19216 7.11871 -1.01903
H 14.80413 8.26797 0.94656
H 12.95191 8.37683 0.88233
H 13.91503 7.59583 -0.40446
H 11.79239 2.39883 3.97459
H 13.08771 0.06312 5.28737
H 12.17312 3.19876 6.05889
H 13.92855 3.16883 5.66701
H 13.22552 1.83654 6.43276
H 10.62863 0.19283 4.73248
H 11.40882 -1.31490 4.29311
H 10.45737 0.95670 2.70669
H 10.20939 -0.79591 2.37248
H 11.77870 0.03838 1.97810
H 15.47241 -4.88684 2.18445
H 14.60331 -3.91871 3.41878
H 16.39208 -4.13882 3.57402
H 19.76945 -2.27724 0.19283
H 21.13153 -4.05702 -3.48957
H 20.88986 -2.26240 -3.98445
H 19.63362 -3.52360 -4.04343

