%nproc=24
%mem=175gb
#p cam-b3lyp/Def2SVP td=(nstates=5)

TDDFT excited states in gaussian

0 1
Mg 7.87704 0.71620 0.60456
C 10.08295 1.48897 3.32777
C 5.71755 -0.56461 2.91340
C 6.11726 -0.38162 -1.79656
C 10.62658 0.99308 -1.51889
N 7.99692 0.54259 2.80632
C 8.85620 0.92676 3.73820
C 8.33981 0.76908 5.19355
C 7.25131 -0.38382 4.93889
C 6.93655 -0.10288 3.47101
C 7.82504 -1.78706 5.04427
C 7.67104 2.08079 5.73591
C 7.42308 2.09932 7.24585
H 7.56641 3.36541 7.95926
N 5.98123 0.13065 0.56467
C 5.25312 -0.34036 1.59873
C 3.92508 -0.65081 1.04729
C 3.97892 -0.47973 -0.43006
C 5.39777 -0.25211 -0.61753
C 2.74373 -0.98647 1.91053
C 2.92930 -0.52746 -1.49881
O 3.23622 -0.58741 -2.74180
C 1.53299 -0.59619 -1.04376
N 8.34280 0.14881 -1.34055
C 7.38148 -0.24146 -2.19582
C 7.91162 -0.33467 -3.60672
C 9.37430 0.31024 -3.55957
C 9.47610 0.59617 -2.04521
C 7.99549 -1.74331 -4.19415
C 9.66465 1.46948 -4.55180
C 8.84156 2.68274 -4.18314
N 9.93733 1.33659 0.80049
C 10.92357 1.35103 -0.21006
C 12.19687 1.74054 0.42981
C 11.86519 1.90461 1.78316
C 10.48712 1.61668 1.97682
C 13.45658 1.85115 -0.22365
C 12.36982 2.24560 3.09380
O 13.44203 2.66196 3.53054
C 11.26628 1.86890 4.17394
C 11.11305 3.03754 5.10845
O 10.66504 4.12195 4.69622
O 11.31361 2.62064 6.37192
C 11.16144 3.74205 7.33684
H 5.07235 -1.19459 3.52637
H 5.53207 -0.65106 -2.67885
H 11.50855 1.19689 -2.12984
H 9.08274 0.42846 5.90476
H 6.36735 -0.23520 5.55362
H 8.89898 -1.77583 5.15680
H 7.54598 -2.28862 4.12687
H 7.33101 -2.33674 5.85056
H 6.63571 2.13053 5.37486
H 8.24101 2.94425 5.45269
H 7.97093 1.30245 7.76334
H 6.37173 1.86354 7.42778
H 3.04737 -1.19844 2.94313
H 2.34070 -1.93728 1.54530
H 1.95884 -0.22857 1.86356
H 1.39825 -1.47936 -0.42383
H 0.92695 -0.53244 -1.94959
H 1.33014 0.27064 -0.40495
H 7.29665 0.23860 -4.28957
H 10.15371 -0.43004 -3.79269
H 7.43025 -1.85679 -5.13845
H 7.63951 -2.44469 -3.45126
H 9.00441 -2.10375 -4.38745
H 9.36405 1.18625 -5.56352
H 10.71178 1.75014 -4.59366
H 7.87416 2.47596 -4.65055
H 9.29025 3.58754 -4.58816
H 8.68004 2.73446 -3.10013
H 13.91800 2.75910 0.14134
H 13.34301 1.86914 -1.30557
H 13.93762 0.93276 0.12337
H 11.60796 0.97220 4.69237
H 12.08688 3.79041 7.91901
H 10.22747 3.53390 7.89192
H 11.11236 4.74685 6.93383

