%nproc=24
%mem=175gb
#p cam-b3lyp/Def2SVP td=(nstates=5)

TDDFT excited states in gaussian

0 1
Mg 15.77414 1.41920 1.19055
C 15.39180 4.64592 -0.33299
C 15.24729 0.06516 -1.89548
C 15.65715 -1.43476 2.57209
C 15.13462 2.94550 4.25766
N 15.38211 2.33997 -0.78195
C 15.32031 3.57722 -1.25071
C 15.25422 3.67608 -2.79842
C 14.64342 2.22316 -3.10632
C 15.14787 1.47925 -1.87149
C 13.12410 2.19407 -3.09394
C 16.67198 3.85242 -3.44717
C 16.65811 4.26416 -4.92096
H 17.70271 5.16405 -5.40209
N 15.98035 -0.39428 0.41124
C 15.74521 -0.76285 -0.86553
C 16.02536 -2.20578 -0.92585
C 16.28605 -2.69119 0.45659
C 15.95698 -1.50375 1.21935
C 16.10559 -2.96579 -2.21789
C 16.74216 -4.01022 1.00277
O 16.67248 -4.28149 2.25352
C 17.18550 -5.00906 0.01927
N 15.23657 0.79823 3.10047
C 15.32612 -0.49492 3.45777
C 15.15305 -0.66218 4.94856
C 15.16965 0.81883 5.55183
C 15.26409 1.62601 4.23847
C 13.87845 -1.37864 5.39406
C 16.20306 1.10998 6.67430
C 17.60543 1.05009 6.11292
N 15.52249 3.44541 1.89710
C 15.23632 3.85932 3.21652
C 15.04255 5.32343 3.18115
C 15.20803 5.65932 1.82901
C 15.46537 4.48465 1.07177
C 14.70767 6.14537 4.29398
C 15.21300 6.73914 0.86845
O 15.13948 7.96523 0.93939
C 15.20692 6.11514 -0.59339
C 16.25919 6.82087 -1.40405
O 17.46309 6.70593 -1.11415
O 15.69192 7.33476 -2.51062
C 16.69792 8.03526 -3.35269
H 14.86964 -0.46674 -2.76918
H 15.71301 -2.38042 3.11624
H 15.02900 3.50823 5.18763
H 14.59195 4.44560 -3.17659
H 15.07264 1.79758 -4.00966
H 12.70586 3.13287 -2.76247
H 12.85066 1.39724 -2.41472
H 12.74475 1.89665 -4.07575
H 17.15206 2.86897 -3.53136
H 17.26518 4.54617 -2.88374
H 15.67000 4.61626 -5.24128
H 16.83678 3.37552 -5.53122
H 15.70550 -2.38000 -3.05466
H 15.42196 -3.81724 -2.13100
H 17.11069 -3.33927 -2.42516
H 16.37594 -5.21423 -0.67713
H 17.55697 -5.85170 0.60565
H 18.00542 -4.58136 -0.56847
H 15.97631 -1.22371 5.37286
H 14.20651 1.08152 6.01356
H 14.07476 -2.27207 6.01640
H 13.31151 -1.64648 4.51237
H 13.17066 -0.76193 5.94533
H 16.14617 0.34226 7.44988
H 16.05535 2.06918 7.15920
H 17.83281 -0.01999 6.13054
H 18.29416 1.61036 6.74205
H 17.62435 1.37390 5.06581
H 15.32925 7.02836 4.22708
H 14.85992 5.62145 5.23531
H 13.64863 6.32600 4.09135
H 14.20765 6.25808 -1.00644
H 16.33197 9.05525 -3.50564
H 16.82459 7.40522 -4.25311
H 17.67239 8.22324 -2.91733

