%nproc=24
%mem=175gb
#p cam-b3lyp/Def2SVP td=(nstates=5)

TDDFT excited states in gaussian

0 1
Mg 0.00000 0.00000 0.00000
C -0.21700 -2.21800 2.80100
C -1.25500 2.44200 2.02600
C -0.24500 1.85000 -2.56400
C 0.14600 -2.82400 -2.03700
N -0.61700 -0.00900 2.12600
C -0.59400 -0.90800 3.10500
C -0.93600 -0.30900 4.50200
C -1.77300 0.96400 4.03200
C -1.15500 1.16800 2.66000
C -3.26300 0.68500 3.86300
C 0.34500 0.11000 5.29900
C 0.12400 0.39700 6.78700
H 1.16800 0.03300 7.73300
N -0.18500 1.96100 -0.15200
C -0.70300 2.80000 0.77700
C -0.62000 4.15600 0.19300
C -0.18700 4.01500 -1.22500
C -0.21400 2.58300 -1.38000
C -0.88700 5.40600 0.97400
C 0.18100 5.01300 -2.27700
O 0.30300 4.69000 -3.50800
C 0.31000 6.41400 -1.83700
N -0.26500 -0.41300 -2.02900
C -0.27900 0.56900 -2.93700
C -0.19600 0.02400 -4.33200
C 0.12400 -1.53300 -4.18000
C 0.08600 -1.63200 -2.63500
C -1.45100 0.20500 -5.19700
C 1.37300 -2.07000 -4.92300
C 2.62600 -1.49000 -4.30600
N 0.15000 -2.14400 0.30300
C 0.17300 -3.13600 -0.68800
C 0.17300 -4.43800 0.00400
C 0.13300 -4.11100 1.35800
C 0.08300 -2.69500 1.50200
C 0.14900 -5.71500 -0.62300
C 0.09600 -4.62900 2.71600
O 0.20800 -5.74700 3.22100
C -0.25500 -3.42800 3.70100
C 0.71700 -3.48200 4.84800
O 1.93100 -3.25500 4.66900
O 0.03800 -3.55600 6.00300
C 0.94300 -3.58300 7.18300
H -1.85900 3.22000 2.49700
H -0.21800 2.45300 -3.47400
H 0.27600 -3.74700 -2.60500
H -1.55400 -0.94900 5.13200
H -1.58500 1.83100 4.66500
H -3.48400 -0.37700 3.96900
H -3.51100 1.02700 2.85800
H -3.85200 1.30100 4.54300
H 0.66900 1.09600 4.96600
H 1.13000 -0.63900 5.18900
H -0.84400 0.02600 7.12500
H 0.06200 1.47700 6.92100
H -1.34400 5.18600 1.93800
H -1.65100 5.96300 0.43200
H 0.00700 6.02000 1.08400
H -0.63500 6.74400 -1.40500
H 0.66500 6.97000 -2.70400
H 1.04800 6.46600 -1.03600
H 0.60800 0.50100 -4.89100
H -0.69200 -2.15600 -4.54700
H -1.26700 0.74000 -6.12900
H -2.20400 0.71400 -4.59600
H -1.96700 -0.72000 -5.45300
H 1.35600 -1.75900 -5.96700
H 1.45200 -3.15700 -4.90200
H 2.71400 -0.52200 -4.79800
H 3.48700 -2.12100 -4.52900
H 2.49500 -1.30300 -3.24000
H 0.86700 -6.33300 -0.08400
H 0.40400 -5.64200 -1.68000
H -0.89100 -5.99900 -0.46300
H -1.28300 -3.58100 4.02800
H 0.69800 -4.47800 7.75500
H 0.83300 -2.61900 7.68000
H 2.00000 -3.75400 6.97600
Mg 13.14596 1.18489 1.00536
C 12.00536 -0.86703 3.71971
C 12.79263 3.86783 3.08180
C 13.71246 3.06351 -1.48809
C 12.32369 -1.43652 -1.13888
N 12.47782 1.35125 3.10730
C 12.12817 0.49696 4.05718
C 11.97502 1.12941 5.46648
C 11.68198 2.64385 5.01986
C 12.38925 2.64068 3.66619
C 10.20734 2.92817 4.78761
C 13.29097 1.02509 6.31466
C 13.12392 1.34175 7.80247
H 13.92594 0.59469 8.76742
N 13.70752 3.08694 0.93177
C 13.50293 4.03277 1.87242
C 14.08723 5.27019 1.33248
C 14.50702 5.01655 -0.07256
C 13.96107 3.68956 -0.27532
C 14.27462 6.50953 2.15854
C 15.26231 5.83814 -1.07293
O 15.30766 5.51541 -2.31253
C 15.86909 7.08158 -0.57577
N 12.83975 0.94751 -1.03724
C 13.22377 1.89666 -1.90877
C 13.15612 1.39153 -3.33027
C 12.87646 -0.17887 -3.21532
C 12.73601 -0.29933 -1.68197
C 12.08838 2.03493 -4.21478
C 13.86959 -1.12571 -3.94324
C 15.22570 -1.06120 -3.27826
N 12.49069 -0.86156 1.23053
C 12.17894 -1.77564 0.20031
C 11.67010 -3.00286 0.84640
C 11.69970 -2.70686 2.21753
C 12.17317 -1.38103 2.41113
C 11.21316 -4.16998 0.17174
C 11.42803 -3.21075 3.54455
O 11.09282 -4.29987 4.00844
C 11.49430 -1.99744 4.56919
C 12.33173 -2.42591 5.74292
O 13.54323 -2.66778 5.60023
O 11.61878 -2.26976 6.87327
C 12.41086 -2.67125 8.06627
H 12.50209 4.79678 3.57325
H 13.99618 3.63003 -2.37805
H 12.13872 -2.33391 -1.73315
H 11.14549 0.74630 6.04861
H 12.15382 3.35307 5.69494
H 9.60977 2.03065 4.84690
H 10.14347 3.36052 3.79764
H 9.85946 3.70229 5.47758
H 13.96929 1.83780 6.02460
H 13.74303 0.05919 6.19933
H 12.06993 1.35307 8.10567
H 13.46486 2.36462 7.97996
H 13.72077 6.45057 3.10362
H 13.79692 7.33161 1.61461
H 15.32690 6.75497 2.31704
H 15.09405 7.71975 -0.15802
H 16.43999 7.48399 -1.41482
H 16.55007 6.83426 0.24625
H 14.09941 1.54410 -3.84020
H 11.90024 -0.45125 -3.64266
H 12.50110 2.49572 -5.13207
H 11.55550 2.77016 -3.62656
H 11.28805 1.36837 -4.53158
H 14.01473 -0.80049 -4.97635
H 13.53805 -2.15823 -3.97421
H 15.68086 -0.17542 -3.73139
H 15.80278 -1.95732 -3.49730
H 15.12827 -0.86851 -2.20353
H 11.62436 -5.01790 0.70321
H 11.51642 -4.16960 -0.87316
H 10.13240 -4.05051 0.28554
H 10.47089 -1.75936 4.86163
H 11.82559 -3.42736 8.59867
H 12.63226 -1.73232 8.60769
H 13.33909 -3.20387 7.89554

