%nproc=24
%mem=175gb
#p cam-b3lyp/Def2SVP td=(nstates=5)

TDDFT excited states in gaussian

0 1
Mg 10.51798 0.95232 0.79346
C 9.90660 4.13211 2.34078
C 9.72908 2.41748 -2.18405
C 10.60919 -1.92784 -0.53462
C 10.14015 -0.49572 3.94086
N 9.91275 3.01534 0.27394
C 9.77390 4.15366 0.93673
C 9.55536 5.39940 0.03677
C 8.95517 4.65973 -1.25611
C 9.59609 3.28580 -1.07120
C 7.44548 4.49298 -1.20738
C 10.89843 6.13909 -0.29644
C 10.73096 7.53101 -0.90986
H 11.70039 8.56619 -0.56194
N 10.69420 0.42107 -1.11056
C 10.34580 1.14708 -2.19352
C 10.65582 0.30491 -3.35920
C 11.06190 -1.04094 -2.87084
C 10.77796 -0.90481 -1.45630
C 10.62980 0.82348 -4.76769
C 11.60269 -2.25453 -3.56435
O 11.66176 -3.39373 -2.97992
C 11.97403 -2.09115 -4.97746
N 10.18454 -0.95761 1.54400
C 10.34161 -2.04317 0.76631
C 10.31845 -3.31036 1.58734
C 10.35538 -2.83412 3.11359
C 10.30107 -1.30505 2.90295
C 9.11199 -4.22297 1.36831
C 11.48504 -3.41769 4.00577
C 12.82737 -2.89619 3.54580
N 10.28403 1.67009 2.81785
C 10.11673 0.89242 3.98460
C 9.88281 1.82942 5.10252
C 9.90754 3.09621 4.49992
C 10.12031 2.95736 3.10173
C 9.63649 1.46451 6.45614
C 9.79143 4.51875 4.72705
O 9.69360 5.23427 5.72314
C 9.65954 5.24606 3.31992
C 10.60963 6.41213 3.30890
O 11.83854 6.22656 3.35320
O 9.92458 7.53606 3.02988
C 10.82571 8.71872 2.99688
H 9.28223 2.71729 -3.13237
H 10.74194 -2.93989 -0.92397
H 10.11084 -0.86340 4.96878
H 8.83991 6.11695 0.42022
H 9.30548 5.12339 -2.17461
H 7.03735 4.79484 -0.25425
H 7.25987 3.44135 -1.38246
H 6.98039 5.02426 -2.04271
H 11.39323 5.62461 -1.13024
H 11.52547 6.19988 0.57175
H 9.70768 7.90991 -0.79901
H 10.87236 7.45325 -1.99059
H 10.13542 1.80094 -4.82739
H 9.97999 0.15486 -5.34263
H 11.61931 0.83795 -5.22956
H 11.10624 -1.76003 -5.54294
H 12.42224 -3.04156 -5.27360
H 12.72173 -1.29372 -5.05276
H 11.19319 -3.91688 1.38720
H 9.43517 -3.11046 3.64903
H 9.39072 -5.24920 1.06295
H 8.46921 -3.76702 0.62703
H 8.44541 -4.32050 2.22351
H 11.52349 -4.50514 3.90513
H 11.36045 -3.19608 5.06046
H 13.08286 -3.56686 2.71996
H 13.55926 -2.96170 4.34834
H 12.73621 -1.88480 3.13295
H 10.22569 2.13207 7.07071
H 9.89283 0.42327 6.64017
H 8.55847 1.63787 6.51180
H 8.62155 5.56268 3.21082
H 10.42050 9.44897 3.70414
H 10.88055 9.02298 1.93472
H 11.83267 8.59233 3.37703

