%nproc=24
%mem=175gb
#p cam-b3lyp/Def2SVP td=(nstates=5)

TDDFT excited states in gaussian

0 1
Mg 0.00000 0.00000 0.00000
C -0.21700 -2.21800 2.80100
C -1.25500 2.44200 2.02600
C -0.24500 1.85000 -2.56400
C 0.14600 -2.82400 -2.03700
N -0.61700 -0.00900 2.12600
C -0.59400 -0.90800 3.10500
C -0.93600 -0.30900 4.50200
C -1.77300 0.96400 4.03200
C -1.15500 1.16800 2.66000
C -3.26300 0.68500 3.86300
C 0.34500 0.11000 5.29900
C 0.12400 0.39700 6.78700
H 1.16800 0.03300 7.73300
N -0.18500 1.96100 -0.15200
C -0.70300 2.80000 0.77700
C -0.62000 4.15600 0.19300
C -0.18700 4.01500 -1.22500
C -0.21400 2.58300 -1.38000
C -0.88700 5.40600 0.97400
C 0.18100 5.01300 -2.27700
O 0.30300 4.69000 -3.50800
C 0.31000 6.41400 -1.83700
N -0.26500 -0.41300 -2.02900
C -0.27900 0.56900 -2.93700
C -0.19600 0.02400 -4.33200
C 0.12400 -1.53300 -4.18000
C 0.08600 -1.63200 -2.63500
C -1.45100 0.20500 -5.19700
C 1.37300 -2.07000 -4.92300
C 2.62600 -1.49000 -4.30600
N 0.15000 -2.14400 0.30300
C 0.17300 -3.13600 -0.68800
C 0.17300 -4.43800 0.00400
C 0.13300 -4.11100 1.35800
C 0.08300 -2.69500 1.50200
C 0.14900 -5.71500 -0.62300
C 0.09600 -4.62900 2.71600
O 0.20800 -5.74700 3.22100
C -0.25500 -3.42800 3.70100
C 0.71700 -3.48200 4.84800
O 1.93100 -3.25500 4.66900
O 0.03800 -3.55600 6.00300
C 0.94300 -3.58300 7.18300
H -1.85900 3.22000 2.49700
H -0.21800 2.45300 -3.47400
H 0.27600 -3.74700 -2.60500
H -1.55400 -0.94900 5.13200
H -1.58500 1.83100 4.66500
H -3.48400 -0.37700 3.96900
H -3.51100 1.02700 2.85800
H -3.85200 1.30100 4.54300
H 0.66900 1.09600 4.96600
H 1.13000 -0.63900 5.18900
H -0.84400 0.02600 7.12500
H 0.06200 1.47700 6.92100
H -1.34400 5.18600 1.93800
H -1.65100 5.96300 0.43200
H 0.00700 6.02000 1.08400
H -0.63500 6.74400 -1.40500
H 0.66500 6.97000 -2.70400
H 1.04800 6.46600 -1.03600
H 0.60800 0.50100 -4.89100
H -0.69200 -2.15600 -4.54700
H -1.26700 0.74000 -6.12900
H -2.20400 0.71400 -4.59600
H -1.96700 -0.72000 -5.45300
H 1.35600 -1.75900 -5.96700
H 1.45200 -3.15700 -4.90200
H 2.71400 -0.52200 -4.79800
H 3.48700 -2.12100 -4.52900
H 2.49500 -1.30300 -3.24000
H 0.86700 -6.33300 -0.08400
H 0.40400 -5.64200 -1.68000
H -0.89100 -5.99900 -0.46300
H -1.28300 -3.58100 4.02800
H 0.69800 -4.47800 7.75500
H 0.83300 -2.61900 7.68000
H 2.00000 -3.75400 6.97600
Mg 7.89014 0.71324 0.60596
C 7.20090 -1.46802 3.37113
C 7.07394 3.31848 2.65075
C 8.05183 2.62051 -1.92457
C 7.53913 -2.05326 -1.48425
N 7.23793 0.78837 2.71813
C 7.07093 -0.09947 3.68674
C 6.82533 0.51779 5.08968
C 6.24559 1.94228 4.62752
C 6.91810 2.04795 3.26032
C 4.74011 1.94084 4.42045
C 8.15147 0.67709 5.91309
C 7.95284 0.98298 7.39927
H 8.89696 0.41673 8.35868
N 8.08310 2.68526 0.49434
C 7.72027 3.59237 1.42535
C 8.05260 4.90770 0.85649
C 8.48898 4.71256 -0.55284
C 8.19870 3.30336 -0.72595
C 8.01765 6.17455 1.66104
C 9.05963 5.64346 -1.57947
O 9.14404 5.31316 -2.81503
C 9.43028 6.98720 -1.11207
N 7.59981 0.38666 -1.42662
C 7.78405 1.37548 -2.31893
C 7.78870 0.84165 -3.73151
C 7.81098 -0.75106 -3.58881
C 7.72135 -0.86867 -2.05144
C 6.60445 1.25768 -4.60379
C 8.95196 -1.50752 -4.32272
C 10.28275 -1.17810 -3.68564
N 7.63481 -1.41551 0.87302
C 7.48311 -2.38985 -0.13779
C 7.22474 -3.67915 0.53555
C 7.22116 -3.35872 1.90150
C 7.44033 -1.96441 2.06690
C 6.98394 -4.92296 -0.11333
C 7.07125 -3.88114 3.24064
O 6.95440 -5.00545 3.72645
C 6.92557 -2.65906 4.24647
C 7.84811 -2.90211 5.40938
O 9.08092 -2.91495 5.24623
O 7.13755 -2.86254 6.55127
C 8.01080 -3.08726 7.73396
H 6.62235 4.18498 3.13462
H 8.20914 3.21441 -2.82790
H 7.51610 -2.97976 -2.06197
H 6.09240 -0.00378 5.69346
H 6.58705 2.73920 5.28302
H 4.32285 0.94837 4.50424
H 4.57960 2.33602 3.42590
H 4.26462 2.64803 5.10611
H 8.66009 1.59736 5.59820
H 8.77492 -0.18877 5.80255
H 6.92071 0.80177 7.72305
H 8.09849 2.05462 7.55548
H 7.50065 6.02944 2.61762
H 7.38500 6.88273 1.11505
H 9.00761 6.61575 1.79523
H 8.55626 7.47595 -0.68817
H 9.90130 7.47469 -1.96786
H 10.15926 6.88652 -0.30024
H 8.67787 1.15941 -4.26209
H 6.89628 -1.20919 -3.99289
H 6.90785 1.77145 -5.53549
H 5.95287 1.89018 -4.01564
H 5.93839 0.44736 -4.89524
H 9.01610 -1.17912 -5.36301
H 8.81979 -2.58429 -4.33250
H 10.55576 -0.23081 -4.16018
H 11.01413 -1.95381 -3.90332
H 10.16886 -0.98819 -2.61204
H 7.55594 -5.66921 0.42187
H 7.26419 -4.88413 -1.16392
H 5.90204 -5.00632 0.02009
H 5.88070 -2.61203 4.55567
H 7.58698 -3.93021 8.28848
H 8.06092 -2.11407 8.25754
H 9.01957 -3.43926 7.55249

