%nproc=24
%mem=175gb
#p cam-b3lyp/Def2SVP td=(nstates=5)

TDDFT excited states in gaussian

0 1
Mg 31.54063 2.83250 2.39260
C 31.56486 3.26380 -1.17004
C 30.99869 -0.48896 1.83692
C 31.06562 2.48989 5.51100
C 30.94280 6.25520 2.66351
N 31.32881 1.65924 0.52958
C 31.41767 1.92052 -0.76587
C 31.42526 0.66344 -1.67650
C 30.67677 -0.35538 -0.68623
C 31.04896 0.28444 0.64973
C 29.16369 -0.32672 -0.82446
C 32.87886 0.17616 -2.01060
C 32.96852 -0.85331 -3.13928
H 34.12134 -0.80614 -4.03441
N 31.58473 1.20483 3.52720
C 31.36379 -0.06721 3.13428
C 31.49149 -0.89070 4.34660
C 31.64294 0.01681 5.51630
C 31.41104 1.30074 4.88556
C 31.54298 -2.39051 4.30981
C 31.93402 -0.23104 6.96545
O 31.78530 0.68595 7.84854
C 32.30842 -1.60434 7.33339
N 30.86322 4.13250 3.86686
C 30.80051 3.74651 5.15334
C 30.55037 4.92435 6.06466
C 30.69950 6.22142 5.14111
C 30.93223 5.53543 3.77706
C 29.18995 4.94948 6.76109
C 31.71160 7.30399 5.60627
C 33.12131 6.76562 5.51536
N 31.47692 4.51249 1.03555
C 31.18300 5.85627 1.35487
C 31.14724 6.60804 0.08366
C 31.40211 5.63737 -0.89681
C 31.56387 4.36648 -0.28187
C 30.85660 7.99456 -0.05495
C 31.56055 5.39698 -2.31308
O 31.61470 6.10976 -3.31445
C 31.54759 3.82747 -2.56381
C 32.70080 3.49225 -3.46948
O 33.87296 3.65014 -3.08512
O 32.23659 2.84032 -4.55109
C 33.34454 2.47673 -5.47416
H 30.60248 -1.50314 1.77904
H 30.99873 2.44744 6.60059
H 30.85984 7.34411 2.67147
H 30.86425 0.76637 -2.59761
H 31.09469 -1.35606 -0.75932
H 28.83430 0.46182 -1.48465
H 28.77994 -0.16843 0.17491
H 28.79505 -1.30793 -1.13695
H 33.25492 -0.42799 -1.17494
H 33.51898 1.00869 -2.22918
H 32.03715 -0.91582 -3.71511
H 33.07651 -1.84607 -2.69568
H 31.24155 -2.77941 3.32935
H 30.76992 -2.75391 4.99551
H 32.51035 -2.78664 4.62592
H 31.51057 -2.28528 7.04666
H 32.56431 -1.56329 8.39391
H 33.19223 -1.89323 6.75371
H 31.29153 4.96738 6.85329
H 29.75174 6.77335 5.05765
H 29.26497 4.99789 7.86386
H 28.63401 4.07294 6.45588
H 28.52980 5.75958 6.45590
H 31.54219 7.55456 6.65635
H 31.64694 8.22734 5.04037
H 33.23298 6.20730 6.44965
H 33.83951 7.58081 5.45444
H 33.21692 6.05016 4.69035
H 31.57054 8.39302 -0.76348
H 30.91411 8.51037 0.90130
H 29.83178 7.94226 -0.43215
H 30.58671 3.57559 -3.01418
H 33.09537 2.89688 -6.45348
H 33.44006 1.37664 -5.40753
H 34.31499 2.92377 -5.29294

