%nproc=24
%mem=175gb
#p cam-b3lyp/Def2SVP td=(nstates=5)

TDDFT excited states in gaussian

0 1
Mg 0.00000 0.00000 0.00000
C -0.21700 -2.21800 2.80100
C -1.25500 2.44200 2.02600
C -0.24500 1.85000 -2.56400
C 0.14600 -2.82400 -2.03700
N -0.61700 -0.00900 2.12600
C -0.59400 -0.90800 3.10500
C -0.93600 -0.30900 4.50200
C -1.77300 0.96400 4.03200
C -1.15500 1.16800 2.66000
C -3.26300 0.68500 3.86300
C 0.34500 0.11000 5.29900
C 0.12400 0.39700 6.78700
H 1.16800 0.03300 7.73300
N -0.18500 1.96100 -0.15200
C -0.70300 2.80000 0.77700
C -0.62000 4.15600 0.19300
C -0.18700 4.01500 -1.22500
C -0.21400 2.58300 -1.38000
C -0.88700 5.40600 0.97400
C 0.18100 5.01300 -2.27700
O 0.30300 4.69000 -3.50800
C 0.31000 6.41400 -1.83700
N -0.26500 -0.41300 -2.02900
C -0.27900 0.56900 -2.93700
C -0.19600 0.02400 -4.33200
C 0.12400 -1.53300 -4.18000
C 0.08600 -1.63200 -2.63500
C -1.45100 0.20500 -5.19700
C 1.37300 -2.07000 -4.92300
C 2.62600 -1.49000 -4.30600
N 0.15000 -2.14400 0.30300
C 0.17300 -3.13600 -0.68800
C 0.17300 -4.43800 0.00400
C 0.13300 -4.11100 1.35800
C 0.08300 -2.69500 1.50200
C 0.14900 -5.71500 -0.62300
C 0.09600 -4.62900 2.71600
O 0.20800 -5.74700 3.22100
C -0.25500 -3.42800 3.70100
C 0.71700 -3.48200 4.84800
O 1.93100 -3.25500 4.66900
O 0.03800 -3.55600 6.00300
C 0.94300 -3.58300 7.18300
H -1.85900 3.22000 2.49700
H -0.21800 2.45300 -3.47400
H 0.27600 -3.74700 -2.60500
H -1.55400 -0.94900 5.13200
H -1.58500 1.83100 4.66500
H -3.48400 -0.37700 3.96900
H -3.51100 1.02700 2.85800
H -3.85200 1.30100 4.54300
H 0.66900 1.09600 4.96600
H 1.13000 -0.63900 5.18900
H -0.84400 0.02600 7.12500
H 0.06200 1.47700 6.92100
H -1.34400 5.18600 1.93800
H -1.65100 5.96300 0.43200
H 0.00700 6.02000 1.08400
H -0.63500 6.74400 -1.40500
H 0.66500 6.97000 -2.70400
H 1.04800 6.46600 -1.03600
H 0.60800 0.50100 -4.89100
H -0.69200 -2.15600 -4.54700
H -1.26700 0.74000 -6.12900
H -2.20400 0.71400 -4.59600
H -1.96700 -0.72000 -5.45300
H 1.35600 -1.75900 -5.96700
H 1.45200 -3.15700 -4.90200
H 2.71400 -0.52200 -4.79800
H 3.48700 -2.12100 -4.52900
H 2.49500 -1.30300 -3.24000
H 0.86700 -6.33300 -0.08400
H 0.40400 -5.64200 -1.68000
H -0.89100 -5.99900 -0.46300
H -1.28300 -3.58100 4.02800
H 0.69800 -4.47800 7.75500
H 0.83300 -2.61900 7.68000
H 2.00000 -3.75400 6.97600
Mg 13.14506 1.19118 0.99880
C 12.58981 2.18004 4.40363
C 12.05297 4.28860 0.07797
C 13.19404 0.20324 -2.01600
C 13.09032 -2.11613 2.09625
N 12.44041 2.92333 2.18007
C 12.33108 3.20486 3.46969
C 11.99924 4.68957 3.77803
C 11.30551 5.07581 2.38217
C 11.99713 4.05937 1.47598
C 9.81131 4.80004 2.35610
C 13.28661 5.54850 4.03672
C 13.02741 6.92863 4.64483
H 13.99599 7.46200 5.59868
N 13.16385 2.22910 -0.69264
C 12.70026 3.48204 -0.88370
C 12.92692 3.78237 -2.30587
C 13.41121 2.54461 -2.97530
C 13.25184 1.58458 -1.90151
C 12.76063 5.15788 -2.88360
C 13.91997 2.26792 -4.35761
O 14.06186 1.07189 -4.79603
C 14.15845 3.43825 -5.21490
N 12.93177 -0.68356 0.12576
C 13.04752 -0.84405 -1.20419
C 13.13221 -2.30625 -1.57186
C 13.29319 -3.08895 -0.18657
C 13.17912 -1.89888 0.79123
C 11.93592 -2.86980 -2.33848
C 14.51365 -4.04051 -0.05357
C 15.79477 -3.23804 -0.04075
N 13.07457 0.18790 2.91100
C 13.03364 -1.20448 3.14271
C 12.87592 -1.39910 4.59862
C 12.81240 -0.09592 5.11455
C 12.90246 0.84439 4.05286
C 12.76200 -2.65291 5.26278
C 12.67897 0.69798 6.31480
O 12.65176 0.45256 7.52011
C 12.40180 2.20578 5.89515
C 13.31539 3.08776 6.70137
O 14.54785 3.03233 6.54461
O 12.57810 3.99868 7.36243
C 13.44052 4.90383 8.16787
H 11.51490 5.14507 -0.32924
H 13.31845 -0.19170 -3.02695
H 13.16330 -3.11670 2.52777
H 11.30208 4.83929 4.59371
H 11.55937 6.08912 2.08197
H 9.48243 4.27807 3.24239
H 9.63907 4.19555 1.47520
H 9.25901 5.73043 2.19587
H 13.71822 5.84613 3.07241
H 13.98719 5.01104 4.64578
H 12.00840 7.02014 5.04006
H 13.07327 7.67364 3.84679
H 12.23680 5.82552 -2.18843
H 12.08004 5.06614 -3.73697
H 13.70394 5.58678 -3.22839
H 13.23482 4.00221 -5.32124
H 14.60363 3.04398 -6.13046
H 14.87467 4.09891 -4.71374
H 14.00143 -2.50031 -2.18821
H 12.43252 -3.74389 0.01378
H 12.21359 -3.32322 -3.30872
H 11.21718 -2.07404 -2.48244
H 11.35166 -3.61424 -1.80029
H 14.57212 -4.70472 -0.91934
H 14.47832 -4.66720 0.83131
H 15.99302 -3.07267 -1.10397
H 16.59724 -3.80497 0.42687
H 15.63977 -2.25657 0.42222
H 13.38583 -2.59580 6.14486
H 13.06171 -3.47442 4.61543
H 11.68906 -2.66584 5.47233
H 11.35007 2.41363 6.09577
H 13.08096 4.85272 9.20024
H 13.39159 5.88825 7.66559
H 14.48057 4.62579 8.29214

