%nproc=24
%mem=175gb
#p cam-b3lyp/Def2SVP td=(nstates=5)

TDDFT excited states in gaussian

0 1
Mg 0.00000 0.00000 0.00000
C -0.21700 -2.21800 2.80100
C -1.25500 2.44200 2.02600
C -0.24500 1.85000 -2.56400
C 0.14600 -2.82400 -2.03700
N -0.61700 -0.00900 2.12600
C -0.59400 -0.90800 3.10500
C -0.93600 -0.30900 4.50200
C -1.77300 0.96400 4.03200
C -1.15500 1.16800 2.66000
C -3.26300 0.68500 3.86300
C 0.34500 0.11000 5.29900
C 0.12400 0.39700 6.78700
H 1.16800 0.03300 7.73300
N -0.18500 1.96100 -0.15200
C -0.70300 2.80000 0.77700
C -0.62000 4.15600 0.19300
C -0.18700 4.01500 -1.22500
C -0.21400 2.58300 -1.38000
C -0.88700 5.40600 0.97400
C 0.18100 5.01300 -2.27700
O 0.30300 4.69000 -3.50800
C 0.31000 6.41400 -1.83700
N -0.26500 -0.41300 -2.02900
C -0.27900 0.56900 -2.93700
C -0.19600 0.02400 -4.33200
C 0.12400 -1.53300 -4.18000
C 0.08600 -1.63200 -2.63500
C -1.45100 0.20500 -5.19700
C 1.37300 -2.07000 -4.92300
C 2.62600 -1.49000 -4.30600
N 0.15000 -2.14400 0.30300
C 0.17300 -3.13600 -0.68800
C 0.17300 -4.43800 0.00400
C 0.13300 -4.11100 1.35800
C 0.08300 -2.69500 1.50200
C 0.14900 -5.71500 -0.62300
C 0.09600 -4.62900 2.71600
O 0.20800 -5.74700 3.22100
C -0.25500 -3.42800 3.70100
C 0.71700 -3.48200 4.84800
O 1.93100 -3.25500 4.66900
O 0.03800 -3.55600 6.00300
C 0.94300 -3.58300 7.18300
H -1.85900 3.22000 2.49700
H -0.21800 2.45300 -3.47400
H 0.27600 -3.74700 -2.60500
H -1.55400 -0.94900 5.13200
H -1.58500 1.83100 4.66500
H -3.48400 -0.37700 3.96900
H -3.51100 1.02700 2.85800
H -3.85200 1.30100 4.54300
H 0.66900 1.09600 4.96600
H 1.13000 -0.63900 5.18900
H -0.84400 0.02600 7.12500
H 0.06200 1.47700 6.92100
H -1.34400 5.18600 1.93800
H -1.65100 5.96300 0.43200
H 0.00700 6.02000 1.08400
H -0.63500 6.74400 -1.40500
H 0.66500 6.97000 -2.70400
H 1.04800 6.46600 -1.03600
H 0.60800 0.50100 -4.89100
H -0.69200 -2.15600 -4.54700
H -1.26700 0.74000 -6.12900
H -2.20400 0.71400 -4.59600
H -1.96700 -0.72000 -5.45300
H 1.35600 -1.75900 -5.96700
H 1.45200 -3.15700 -4.90200
H 2.71400 -0.52200 -4.79800
H 3.48700 -2.12100 -4.52900
H 2.49500 -1.30300 -3.24000
H 0.86700 -6.33300 -0.08400
H 0.40400 -5.64200 -1.68000
H -0.89100 -5.99900 -0.46300
H -1.28300 -3.58100 4.02800
H 0.69800 -4.47800 7.75500
H 0.83300 -2.61900 7.68000
H 2.00000 -3.75400 6.97600
Mg 10.51522 0.94058 0.80625
C 7.83716 0.89942 3.19484
C 12.41321 2.48224 3.18438
C 12.74075 1.39817 -1.40849
C 8.11992 0.46263 -1.67967
N 10.07081 1.55734 2.88335
C 9.03868 1.43444 3.70430
C 9.33420 1.83753 5.17390
C 10.56979 2.82816 4.90772
C 11.07829 2.23725 3.59435
C 10.14516 4.26477 4.65239
C 9.76044 0.61170 6.05576
C 9.76451 0.87447 7.56330
H 9.37191 -0.20935 8.45979
N 12.44668 1.35661 0.99320
C 13.05078 1.96548 2.03513
C 14.47503 2.05538 1.67792
C 14.63542 1.59872 0.27064
C 13.24729 1.44989 -0.11803
C 15.53582 2.46267 2.65887
C 15.83869 1.35085 -0.58779
O 15.73940 1.18624 -1.85502
C 17.14510 1.39941 0.08482
N 10.42641 1.14449 -1.26085
C 11.54731 1.28061 -1.99089
C 11.25902 1.13253 -3.46580
C 9.74493 0.62613 -3.55888
C 9.37552 0.65587 -2.05954
C 11.42458 2.39841 -4.30636
C 9.48785 -0.68096 -4.35769
C 10.10370 -1.85719 -3.63478
N 8.39398 0.53439 0.74774
C 7.58328 0.39638 -0.40021
C 6.19013 0.24255 0.06659
C 6.28488 0.32545 1.46396
C 7.63867 0.53761 1.84042
C 5.04432 0.10295 -0.76633
C 5.54606 0.29236 2.70563
O 4.37920 0.05619 3.01613
C 6.50095 0.78894 3.87524
C 6.37543 -0.17887 5.01983
O 6.76010 -1.35522 4.89796
O 6.02613 0.49529 6.13063
C 5.90000 -0.42026 7.29582
H 13.01966 3.16915 3.77535
H 13.48343 1.44025 -2.20857
H 7.32784 0.21093 -2.38815
H 8.53098 2.36972 5.66927
H 11.32429 2.73616 5.68465
H 9.07229 4.36005 4.57487
H 10.61856 4.55054 3.72218
H 10.56402 4.92349 5.41853
H 10.82774 0.41046 5.89724
H 9.15022 -0.24362 5.83968
H 9.23355 1.79863 7.82206
H 10.79374 1.05886 7.88064
H 15.09901 2.89879 3.56573
H 16.09375 3.28743 2.20241
H 16.22978 1.65163 2.88974
H 17.27747 2.37494 0.54665
H 17.87514 1.10969 -0.67345
H 17.14807 0.66377 0.89688
H 11.90651 0.38869 -3.91363
H 9.09841 1.36384 -4.05651
H 12.14020 2.27736 -5.14141
H 11.73467 3.20350 -3.65352
H 10.50462 2.79089 -4.73627
H 9.97310 -0.62891 -5.33543
H 8.43580 -0.88167 -4.53058
H 11.14937 -1.82369 -3.95502
H 9.62707 -2.78660 -3.93986
H 10.08634 -1.70500 -2.54934
H 4.43387 -0.67542 -0.32818
H 5.32378 -0.13862 -1.78972
H 4.61915 1.10672 -0.68298
H 6.18321 1.79470 4.15282
H 4.89498 -0.27946 7.70546
H 6.75237 -0.17949 7.95858
H 5.90052 -1.48583 7.09831

