%nproc=24
%mem=175gb
#p cam-b3lyp/Def2SVP td=(nstates=5)

TDDFT excited states in gaussian

0 1
Mg 0.00000 0.00000 0.00000
C -0.21700 -2.21800 2.80100
C -1.25500 2.44200 2.02600
C -0.24500 1.85000 -2.56400
C 0.14600 -2.82400 -2.03700
N -0.61700 -0.00900 2.12600
C -0.59400 -0.90800 3.10500
C -0.93600 -0.30900 4.50200
C -1.77300 0.96400 4.03200
C -1.15500 1.16800 2.66000
C -3.26300 0.68500 3.86300
C 0.34500 0.11000 5.29900
C 0.12400 0.39700 6.78700
H 1.16800 0.03300 7.73300
N -0.18500 1.96100 -0.15200
C -0.70300 2.80000 0.77700
C -0.62000 4.15600 0.19300
C -0.18700 4.01500 -1.22500
C -0.21400 2.58300 -1.38000
C -0.88700 5.40600 0.97400
C 0.18100 5.01300 -2.27700
O 0.30300 4.69000 -3.50800
C 0.31000 6.41400 -1.83700
N -0.26500 -0.41300 -2.02900
C -0.27900 0.56900 -2.93700
C -0.19600 0.02400 -4.33200
C 0.12400 -1.53300 -4.18000
C 0.08600 -1.63200 -2.63500
C -1.45100 0.20500 -5.19700
C 1.37300 -2.07000 -4.92300
C 2.62600 -1.49000 -4.30600
N 0.15000 -2.14400 0.30300
C 0.17300 -3.13600 -0.68800
C 0.17300 -4.43800 0.00400
C 0.13300 -4.11100 1.35800
C 0.08300 -2.69500 1.50200
C 0.14900 -5.71500 -0.62300
C 0.09600 -4.62900 2.71600
O 0.20800 -5.74700 3.22100
C -0.25500 -3.42800 3.70100
C 0.71700 -3.48200 4.84800
O 1.93100 -3.25500 4.66900
O 0.03800 -3.55600 6.00300
C 0.94300 -3.58300 7.18300
H -1.85900 3.22000 2.49700
H -0.21800 2.45300 -3.47400
H 0.27600 -3.74700 -2.60500
H -1.55400 -0.94900 5.13200
H -1.58500 1.83100 4.66500
H -3.48400 -0.37700 3.96900
H -3.51100 1.02700 2.85800
H -3.85200 1.30100 4.54300
H 0.66900 1.09600 4.96600
H 1.13000 -0.63900 5.18900
H -0.84400 0.02600 7.12500
H 0.06200 1.47700 6.92100
H -1.34400 5.18600 1.93800
H -1.65100 5.96300 0.43200
H 0.00700 6.02000 1.08400
H -0.63500 6.74400 -1.40500
H 0.66500 6.97000 -2.70400
H 1.04800 6.46600 -1.03600
H 0.60800 0.50100 -4.89100
H -0.69200 -2.15600 -4.54700
H -1.26700 0.74000 -6.12900
H -2.20400 0.71400 -4.59600
H -1.96700 -0.72000 -5.45300
H 1.35600 -1.75900 -5.96700
H 1.45200 -3.15700 -4.90200
H 2.71400 -0.52200 -4.79800
H 3.48700 -2.12100 -4.52900
H 2.49500 -1.30300 -3.24000
H 0.86700 -6.33300 -0.08400
H 0.40400 -5.64200 -1.68000
H -0.89100 -5.99900 -0.46300
H -1.28300 -3.58100 4.02800
H 0.69800 -4.47800 7.75500
H 0.83300 -2.61900 7.68000
H 2.00000 -3.75400 6.97600
Mg 31.53102 2.84117 2.38511
C 33.51993 0.31137 0.79659
C 33.51598 5.15311 0.85232
C 30.09202 5.07785 4.11542
C 30.47265 0.39967 4.63559
N 33.26185 2.63537 1.02344
C 33.88951 1.62516 0.44048
C 34.91969 2.04636 -0.64159
C 35.22584 3.53277 -0.11649
C 33.90869 3.81366 0.60385
C 36.35023 3.59081 0.90416
C 34.29975 2.06265 -2.08292
C 35.31874 2.16306 -3.22016
H 35.04524 1.44987 -4.46476
N 31.43141 4.80522 2.11841
C 32.31063 5.58138 1.45071
C 31.79813 6.95595 1.56051
C 30.63327 6.94967 2.48668
C 30.68777 5.58440 2.96954
C 32.35820 8.09917 0.76504
C 29.64288 8.00236 2.88313
O 28.85756 7.84528 3.88384
C 29.68367 9.26028 2.12323
N 30.60634 2.80617 4.24685
C 30.01366 3.90542 4.74516
C 29.18185 3.57305 5.96090
C 29.14503 1.97584 6.03270
C 30.07673 1.64761 4.84543
C 29.69300 4.13030 7.28927
C 27.74462 1.30560 6.08056
C 27.02653 1.51611 4.76701
N 31.75979 0.70162 2.58018
C 31.25564 -0.11953 3.61247
C 31.76758 -1.48434 3.37240
C 32.55903 -1.35681 2.22095
C 32.55788 -0.00376 1.78649
C 31.52382 -2.62076 4.19414
C 33.40377 -2.05707 1.28034
O 33.70375 -3.23535 1.09223
C 34.16561 -0.98389 0.38913
C 34.04446 -1.40491 -1.04982
O 32.93562 -1.42008 -1.61272
O 35.27520 -1.50991 -1.58333
C 35.20694 -1.91453 -3.01282
H 34.21424 5.95300 0.60432
H 29.49085 5.78818 4.68770
H 30.10911 -0.43690 5.23614
H 35.83128 1.46101 -0.65323
H 35.36264 4.22376 -0.94425
H 36.67981 2.60503 1.19700
H 35.94741 4.12353 1.75563
H 37.17187 4.20541 0.52532
H 33.76034 3.00719 -2.23003
H 33.66994 1.20802 -2.23646
H 36.34050 1.95969 -2.87725
H 35.35301 3.19940 -3.56490
H 33.31367 7.83311 0.29631
H 32.61639 8.88909 1.47865
H 31.64503 8.49717 0.04003
H 30.67297 9.70311 2.21069
H 28.84406 9.85225 2.49270
H 29.53333 9.03294 1.06194
H 28.17002 3.94326 5.85017
H 29.64327 1.59704 6.93719
H 28.95048 4.76225 7.81212
H 30.60029 4.68809 7.09892
H 30.02782 3.38208 8.00570
H 27.12672 1.77398 6.85061
H 27.78131 0.24355 6.29898
H 26.59318 2.51438 4.87988
H 26.25305 0.76342 4.62835
H 27.73631 1.55729 3.93264
H 31.30721 -3.44563 3.52843
H 30.70404 -2.44205 4.88681
H 32.48558 -2.69978 4.70800
H 35.20384 -0.95898 0.72237
H 35.81608 -2.81754 -3.11870
H 35.52058 -1.02475 -3.59046
H 34.25144 -2.25839 -3.39129

