%nproc=24
%mem=175gb
#p cam-b3lyp/Def2SVP td=(nstates=5)

TDDFT excited states in gaussian

0 1
Mg 0.00000 0.00000 0.00000
C -0.21700 -2.21800 2.80100
C -1.25500 2.44200 2.02600
C -0.24500 1.85000 -2.56400
C 0.14600 -2.82400 -2.03700
N -0.61700 -0.00900 2.12600
C -0.59400 -0.90800 3.10500
C -0.93600 -0.30900 4.50200
C -1.77300 0.96400 4.03200
C -1.15500 1.16800 2.66000
C -3.26300 0.68500 3.86300
C 0.34500 0.11000 5.29900
C 0.12400 0.39700 6.78700
H 1.16800 0.03300 7.73300
N -0.18500 1.96100 -0.15200
C -0.70300 2.80000 0.77700
C -0.62000 4.15600 0.19300
C -0.18700 4.01500 -1.22500
C -0.21400 2.58300 -1.38000
C -0.88700 5.40600 0.97400
C 0.18100 5.01300 -2.27700
O 0.30300 4.69000 -3.50800
C 0.31000 6.41400 -1.83700
N -0.26500 -0.41300 -2.02900
C -0.27900 0.56900 -2.93700
C -0.19600 0.02400 -4.33200
C 0.12400 -1.53300 -4.18000
C 0.08600 -1.63200 -2.63500
C -1.45100 0.20500 -5.19700
C 1.37300 -2.07000 -4.92300
C 2.62600 -1.49000 -4.30600
N 0.15000 -2.14400 0.30300
C 0.17300 -3.13600 -0.68800
C 0.17300 -4.43800 0.00400
C 0.13300 -4.11100 1.35800
C 0.08300 -2.69500 1.50200
C 0.14900 -5.71500 -0.62300
C 0.09600 -4.62900 2.71600
O 0.20800 -5.74700 3.22100
C -0.25500 -3.42800 3.70100
C 0.71700 -3.48200 4.84800
O 1.93100 -3.25500 4.66900
O 0.03800 -3.55600 6.00300
C 0.94300 -3.58300 7.18300
H -1.85900 3.22000 2.49700
H -0.21800 2.45300 -3.47400
H 0.27600 -3.74700 -2.60500
H -1.55400 -0.94900 5.13200
H -1.58500 1.83100 4.66500
H -3.48400 -0.37700 3.96900
H -3.51100 1.02700 2.85800
H -3.85200 1.30100 4.54300
H 0.66900 1.09600 4.96600
H 1.13000 -0.63900 5.18900
H -0.84400 0.02600 7.12500
H 0.06200 1.47700 6.92100
H -1.34400 5.18600 1.93800
H -1.65100 5.96300 0.43200
H 0.00700 6.02000 1.08400
H -0.63500 6.74400 -1.40500
H 0.66500 6.97000 -2.70400
H 1.04800 6.46600 -1.03600
H 0.60800 0.50100 -4.89100
H -0.69200 -2.15600 -4.54700
H -1.26700 0.74000 -6.12900
H -2.20400 0.71400 -4.59600
H -1.96700 -0.72000 -5.45300
H 1.35600 -1.75900 -5.96700
H 1.45200 -3.15700 -4.90200
H 2.71400 -0.52200 -4.79800
H 3.48700 -2.12100 -4.52900
H 2.49500 -1.30300 -3.24000
H 0.86700 -6.33300 -0.08400
H 0.40400 -5.64200 -1.68000
H -0.89100 -5.99900 -0.46300
H -1.28300 -3.58100 4.02800
H 0.69800 -4.47800 7.75500
H 0.83300 -2.61900 7.68000
H 2.00000 -3.75400 6.97600
Mg 31.54166 2.84348 2.39810
C 32.60834 0.71185 5.08090
C 31.52498 5.41087 4.64372
C 30.17466 4.64781 0.17479
C 30.55550 -0.03073 0.69159
N 32.02463 2.92584 4.55500
C 32.47804 2.06572 5.45441
C 32.88674 2.70618 6.80805
C 31.97616 4.02687 6.73386
C 31.85836 4.15763 5.21672
C 30.58218 3.82967 7.30593
C 34.41358 3.06356 6.86339
C 34.94407 3.40469 8.25765
H 36.30438 3.00104 8.60277
N 31.39787 4.81773 2.25594
C 31.43371 5.71111 3.26681
C 31.26620 7.03242 2.64213
C 30.96361 6.83386 1.19862
C 30.80973 5.39348 1.15725
C 31.47396 8.31786 3.38907
C 30.82192 7.78439 0.04857
O 30.32144 7.41541 -1.07223
C 31.19971 9.18225 0.30303
N 30.32238 2.39808 0.77412
C 29.90877 3.36367 -0.06521
C 29.27790 2.77556 -1.30478
C 29.57296 1.20539 -1.23336
C 30.27690 1.14239 0.13992
C 27.77440 3.00412 -1.45844
C 30.28321 0.56635 -2.45804
C 31.69935 1.08509 -2.56202
N 31.72953 0.71265 2.70198
C 31.22135 -0.31468 1.87709
C 31.50099 -1.59658 2.55602
C 32.13700 -1.22186 3.74915
C 32.22796 0.19459 3.81896
C 31.13131 -2.88689 2.08213
C 32.74259 -1.70202 4.97039
O 33.02896 -2.81068 5.42050
C 32.96140 -0.46626 5.94579
C 34.36298 -0.54361 6.48627
O 35.34058 -0.41003 5.72926
O 34.31725 -0.54460 7.83099
C 35.68405 -0.60908 8.41367
H 31.26724 6.23414 5.31056
H 29.78327 5.21810 -0.67083
H 30.36720 -0.97640 0.17883
H 32.62601 2.12347 7.68340
H 32.49294 4.88693 7.15172
H 30.39376 2.79745 7.56120
H 29.89837 4.15961 6.53484
H 30.42494 4.50052 8.15538
H 34.57455 4.02581 6.36050
H 35.00455 2.27799 6.43414
H 34.24353 3.11043 9.04860
H 35.00893 4.49174 8.34787
H 31.52568 8.15003 4.47192
H 30.56840 8.91832 3.25022
H 32.33298 8.88390 3.02253
H 30.59844 9.57603 1.11905
H 31.11471 9.68802 -0.66074
H 32.24213 9.20720 0.63971
H 29.73529 3.17871 -2.19996
H 28.64623 0.62056 -1.13857
H 27.50446 3.51193 -2.40361
H 27.42719 3.57496 -0.60748
H 27.16229 2.10578 -1.39929
H 29.77787 0.85608 -3.38262
H 30.30351 -0.51795 -2.42830
H 31.57529 2.03814 -3.08489
H 32.31793 0.39780 -3.13563
H 32.11196 1.30441 -1.57040
H 31.98438 -3.53308 2.24094
H 30.84341 -2.85780 1.03331
H 30.28069 -3.09834 2.73558
H 32.21331 -0.53644 6.73636
H 35.70521 -1.47406 9.08379
H 35.86261 0.38398 8.86723
H 36.50403 -0.84033 7.74389

