%nproc=24
%mem=175gb
#p cam-b3lyp/Def2SVP td=(nstates=5)

TDDFT excited states in gaussian

0 1
Mg 0.00000 0.00000 0.00000
C -0.21700 -2.21800 2.80100
C -1.25500 2.44200 2.02600
C -0.24500 1.85000 -2.56400
C 0.14600 -2.82400 -2.03700
N -0.61700 -0.00900 2.12600
C -0.59400 -0.90800 3.10500
C -0.93600 -0.30900 4.50200
C -1.77300 0.96400 4.03200
C -1.15500 1.16800 2.66000
C -3.26300 0.68500 3.86300
C 0.34500 0.11000 5.29900
C 0.12400 0.39700 6.78700
H 1.16800 0.03300 7.73300
N -0.18500 1.96100 -0.15200
C -0.70300 2.80000 0.77700
C -0.62000 4.15600 0.19300
C -0.18700 4.01500 -1.22500
C -0.21400 2.58300 -1.38000
C -0.88700 5.40600 0.97400
C 0.18100 5.01300 -2.27700
O 0.30300 4.69000 -3.50800
C 0.31000 6.41400 -1.83700
N -0.26500 -0.41300 -2.02900
C -0.27900 0.56900 -2.93700
C -0.19600 0.02400 -4.33200
C 0.12400 -1.53300 -4.18000
C 0.08600 -1.63200 -2.63500
C -1.45100 0.20500 -5.19700
C 1.37300 -2.07000 -4.92300
C 2.62600 -1.49000 -4.30600
N 0.15000 -2.14400 0.30300
C 0.17300 -3.13600 -0.68800
C 0.17300 -4.43800 0.00400
C 0.13300 -4.11100 1.35800
C 0.08300 -2.69500 1.50200
C 0.14900 -5.71500 -0.62300
C 0.09600 -4.62900 2.71600
O 0.20800 -5.74700 3.22100
C -0.25500 -3.42800 3.70100
C 0.71700 -3.48200 4.84800
O 1.93100 -3.25500 4.66900
O 0.03800 -3.55600 6.00300
C 0.94300 -3.58300 7.18300
H -1.85900 3.22000 2.49700
H -0.21800 2.45300 -3.47400
H 0.27600 -3.74700 -2.60500
H -1.55400 -0.94900 5.13200
H -1.58500 1.83100 4.66500
H -3.48400 -0.37700 3.96900
H -3.51100 1.02700 2.85800
H -3.85200 1.30100 4.54300
H 0.66900 1.09600 4.96600
H 1.13000 -0.63900 5.18900
H -0.84400 0.02600 7.12500
H 0.06200 1.47700 6.92100
H -1.34400 5.18600 1.93800
H -1.65100 5.96300 0.43200
H 0.00700 6.02000 1.08400
H -0.63500 6.74400 -1.40500
H 0.66500 6.97000 -2.70400
H 1.04800 6.46600 -1.03600
H 0.60800 0.50100 -4.89100
H -0.69200 -2.15600 -4.54700
H -1.26700 0.74000 -6.12900
H -2.20400 0.71400 -4.59600
H -1.96700 -0.72000 -5.45300
H 1.35600 -1.75900 -5.96700
H 1.45200 -3.15700 -4.90200
H 2.71400 -0.52200 -4.79800
H 3.48700 -2.12100 -4.52900
H 2.49500 -1.30300 -3.24000
H 0.86700 -6.33300 -0.08400
H 0.40400 -5.64200 -1.68000
H -0.89100 -5.99900 -0.46300
H -1.28300 -3.58100 4.02800
H 0.69800 -4.47800 7.75500
H 0.83300 -2.61900 7.68000
H 2.00000 -3.75400 6.97600
Mg 8.92934 0.81178 0.68442
C 11.18680 1.11775 3.45738
C 6.52277 -0.07319 2.93383
C 7.04268 0.09821 -1.76481
C 11.72343 0.59731 -1.38749
N 8.97101 0.58755 2.88447
C 9.86851 0.79022 3.83724
C 9.30307 0.71174 5.28073
C 8.02290 -0.21245 4.98760
C 7.79548 0.14340 3.51983
C 8.32107 -1.69982 5.07781
C 8.88159 2.11791 5.83485
C 8.61172 2.16128 7.34052
H 8.97585 3.36766 8.07844
N 6.95852 0.59338 0.60247
C 6.13470 0.25293 1.61573
C 4.78316 0.20532 1.03674
C 4.89731 0.38415 -0.43625
C 6.33709 0.34383 -0.59589
C 3.54301 0.08534 1.87402
C 3.87869 0.54960 -1.52310
O 4.19341 0.45067 -2.76165
C 2.48555 0.73793 -1.09278
N 9.31876 0.19462 -1.26233
C 8.31839 0.00403 -2.14032
C 8.84941 -0.16709 -3.54357
C 10.40587 0.19085 -3.46057
C 10.52954 0.43107 -1.93991
C 8.67919 -1.55794 -4.15426
C 10.92802 1.28886 -4.42721
C 10.33996 2.62978 -4.05105
N 11.06514 1.03127 0.92572
C 12.05636 0.87451 -0.06776
C 13.36722 1.00880 0.60011
C 13.04553 1.21306 1.95040
C 11.63436 1.18640 2.11584
C 14.63799 0.89006 -0.03012
C 13.57916 1.43457 3.27511
O 14.70160 1.63589 3.73702
C 12.40344 1.25660 4.32981
C 12.45367 2.41986 5.28209
O 12.22523 3.57486 4.88159
O 12.54749 1.95484 6.54118
C 12.58931 3.07109 7.52305
H 5.75889 -0.57937 3.52472
H 6.43489 -0.04398 -2.66139
H 12.63987 0.64046 -1.97990
H 9.95473 0.22759 5.99817
H 7.17053 0.09085 5.58996
H 9.37563 -1.89212 5.20849
H 7.97108 -2.12698 4.14717
H 7.71688 -2.15829 5.86590
H 7.88130 2.36635 5.45745
H 9.60887 2.86285 5.57649
H 8.99007 1.26843 7.85298
H 7.53143 2.12463 7.50064
H 3.78104 -0.19451 2.90767
H 2.97609 -0.76756 1.48540
H 2.91527 0.97777 1.82729
H 2.17534 -0.11291 -0.49087
H 1.92024 0.92722 -2.00736
H 2.43630 1.61829 -0.44227
H 8.36648 0.52111 -4.22641
H 11.03705 -0.67928 -3.69362
H 8.12146 -1.54983 -5.10974
H 8.18338 -2.19042 -3.42991
H 9.60622 -2.09871 -4.33695
H 10.59968 1.08150 -5.44866
H 12.00983 1.36839 -4.44657
H 9.36037 2.61505 -4.53816
H 10.95830 3.43984 -4.43249
H 10.16965 2.69557 -2.97016
H 15.25420 1.68991 0.35850
H 14.55121 0.94440 -1.11330
H 14.93129 -0.10716 0.30867
H 12.56057 0.30443 4.83800
H 13.49571 2.93649 8.12139
H 11.62208 3.03423 8.05865
H 12.73752 4.07283 7.13704

