%nproc=24
%mem=175gb
#p cam-b3lyp/Def2SVP td=(nstates=5)

TDDFT excited states in gaussian

0 1
Mg 0.00000 0.00000 0.00000
C -0.21700 -2.21800 2.80100
C -1.25500 2.44200 2.02600
C -0.24500 1.85000 -2.56400
C 0.14600 -2.82400 -2.03700
N -0.61700 -0.00900 2.12600
C -0.59400 -0.90800 3.10500
C -0.93600 -0.30900 4.50200
C -1.77300 0.96400 4.03200
C -1.15500 1.16800 2.66000
C -3.26300 0.68500 3.86300
C 0.34500 0.11000 5.29900
C 0.12400 0.39700 6.78700
H 1.16800 0.03300 7.73300
N -0.18500 1.96100 -0.15200
C -0.70300 2.80000 0.77700
C -0.62000 4.15600 0.19300
C -0.18700 4.01500 -1.22500
C -0.21400 2.58300 -1.38000
C -0.88700 5.40600 0.97400
C 0.18100 5.01300 -2.27700
O 0.30300 4.69000 -3.50800
C 0.31000 6.41400 -1.83700
N -0.26500 -0.41300 -2.02900
C -0.27900 0.56900 -2.93700
C -0.19600 0.02400 -4.33200
C 0.12400 -1.53300 -4.18000
C 0.08600 -1.63200 -2.63500
C -1.45100 0.20500 -5.19700
C 1.37300 -2.07000 -4.92300
C 2.62600 -1.49000 -4.30600
N 0.15000 -2.14400 0.30300
C 0.17300 -3.13600 -0.68800
C 0.17300 -4.43800 0.00400
C 0.13300 -4.11100 1.35800
C 0.08300 -2.69500 1.50200
C 0.14900 -5.71500 -0.62300
C 0.09600 -4.62900 2.71600
O 0.20800 -5.74700 3.22100
C -0.25500 -3.42800 3.70100
C 0.71700 -3.48200 4.84800
O 1.93100 -3.25500 4.66900
O 0.03800 -3.55600 6.00300
C 0.94300 -3.58300 7.18300
H -1.85900 3.22000 2.49700
H -0.21800 2.45300 -3.47400
H 0.27600 -3.74700 -2.60500
H -1.55400 -0.94900 5.13200
H -1.58500 1.83100 4.66500
H -3.48400 -0.37700 3.96900
H -3.51100 1.02700 2.85800
H -3.85200 1.30100 4.54300
H 0.66900 1.09600 4.96600
H 1.13000 -0.63900 5.18900
H -0.84400 0.02600 7.12500
H 0.06200 1.47700 6.92100
H -1.34400 5.18600 1.93800
H -1.65100 5.96300 0.43200
H 0.00700 6.02000 1.08400
H -0.63500 6.74400 -1.40500
H 0.66500 6.97000 -2.70400
H 1.04800 6.46600 -1.03600
H 0.60800 0.50100 -4.89100
H -0.69200 -2.15600 -4.54700
H -1.26700 0.74000 -6.12900
H -2.20400 0.71400 -4.59600
H -1.96700 -0.72000 -5.45300
H 1.35600 -1.75900 -5.96700
H 1.45200 -3.15700 -4.90200
H 2.71400 -0.52200 -4.79800
H 3.48700 -2.12100 -4.52900
H 2.49500 -1.30300 -3.24000
H 0.86700 -6.33300 -0.08400
H 0.40400 -5.64200 -1.68000
H -0.89100 -5.99900 -0.46300
H -1.28300 -3.58100 4.02800
H 0.69800 -4.47800 7.75500
H 0.83300 -2.61900 7.68000
H 2.00000 -3.75400 6.97600
Mg 31.53980 2.84412 2.38971
C 30.94455 6.19855 3.51777
C 30.79794 3.93005 -0.75751
C 31.61567 -0.18090 1.43529
C 31.11342 1.80684 5.68940
N 30.96138 4.83068 1.60788
C 30.82712 6.04450 2.12066
C 30.63104 7.16904 1.06874
C 30.03718 6.27796 -0.12800
C 30.66195 4.93258 0.23573
C 28.52542 6.13201 -0.07671
C 31.98513 7.84905 0.66125
C 31.83854 9.15418 -0.12418
H 32.81476 10.21630 0.10242
N 31.73095 2.07607 0.56978
C 31.40164 2.66315 -0.59991
C 31.71548 1.67835 -1.64673
C 32.10246 0.40107 -0.98830
C 31.80480 0.71654 0.39443
C 31.70987 2.01585 -3.10943
C 32.63817 -0.89484 -1.51731
O 32.67928 -1.95196 -0.79368
C 33.02629 -0.91378 -2.93522
N 31.17874 1.04677 3.37029
C 31.33299 -0.12933 2.73711
C 31.28802 -1.28292 3.71055
C 31.31349 -0.61885 5.16518
C 31.27714 0.87201 4.76342
C 30.07468 -2.20514 3.59357
C 32.42747 -1.09552 6.13703
C 33.77994 -0.64790 5.63120
N 31.29155 3.81284 4.30491
C 31.10379 3.18961 5.55807
C 30.86753 4.26181 6.54650
C 30.91171 5.44248 5.78983
C 31.13802 5.12700 4.42280
C 30.60298 4.07225 7.93222
C 30.80779 6.88326 5.83498
O 30.70664 7.71922 6.73202
C 30.69846 7.42894 4.34613
C 31.66053 8.57593 4.19999
O 32.88692 8.38655 4.28191
O 30.99008 9.66184 3.77379
C 31.90361 10.82295 3.60317
H 30.36437 4.11214 -1.74125
H 31.74219 -1.23503 1.17782
H 31.06932 1.57165 6.75496
H 29.91893 7.93541 1.35042
H 30.40206 6.61930 -1.09325
H 28.11023 6.55494 0.82600
H 28.33092 5.06838 -0.12044
H 28.07479 6.55809 -0.97767
H 32.48353 7.22942 -0.09533
H 32.60342 8.01301 1.52233
H 30.81808 9.55304 -0.07404
H 31.99071 8.93986 -1.18481
H 31.22622 2.98236 -3.29738
H 31.05943 1.28600 -3.60350
H 32.70437 1.96337 -3.55763
H 32.16806 -0.64876 -3.54813
H 33.46786 -1.89782 -3.10421
H 33.78290 -0.13879 -3.10122
H 32.15859 -1.91751 3.59866
H 30.38481 -0.81750 5.72009
H 30.34612 -3.26405 3.42294
H 29.44460 -1.84039 2.79327
H 29.39801 -2.18844 4.44624
H 32.45584 -2.18729 6.17431
H 32.29387 -0.74193 7.15394
H 34.03736 -1.41935 4.89929
H 34.50247 -0.61842 6.44428
H 33.70359 0.30429 5.09347
H 31.19239 4.80658 8.46500
H 30.84664 3.06019 8.24868
H 29.52627 4.26075 7.95279
H 29.66500 7.73848 4.18574
H 31.49836 11.63992 4.20818
H 31.97294 10.99070 2.51194
H 32.90508 10.73650 4.00817

