%nproc=24
%mem=175gb
#p cam-b3lyp/Def2SVP td=(nstates=5)

TDDFT excited states in gaussian

0 1
Mg 10.51634 0.94164 0.80624
C 7.93406 0.44106 3.24762
C 12.13050 2.85359 3.12432
C 12.57890 1.76939 -1.45829
C 8.21217 -0.02082 -1.62485
N 9.99883 1.50062 2.88277
C 9.02205 1.20083 3.72560
C 9.26116 1.67803 5.18322
C 10.28404 2.87797 4.87867
C 10.87242 2.36985 3.56402
C 9.59290 4.20471 4.61144
C 9.92479 0.56963 6.07377
C 9.90466 0.85503 7.57707
H 9.73771 -0.26720 8.49641
N 12.33812 1.71576 0.94908
C 12.83446 2.44540 1.97014
C 14.21028 2.79452 1.58362
C 14.43001 2.35129 0.18006
C 13.08824 1.93794 -0.17895
C 15.19196 3.41075 2.53755
C 15.64388 2.31840 -0.69837
O 15.55607 2.11578 -1.96094
C 16.92899 2.62297 -0.05245
N 10.35621 1.08880 -1.26138
C 11.41920 1.41984 -2.01529
C 11.13920 1.19434 -3.48196
C 9.74585 0.41139 -3.53793
C 9.40258 0.39775 -2.03215
C 11.04993 2.45378 -4.34348
C 9.72554 -0.93460 -4.31289
C 10.56339 -1.96152 -3.58569
N 8.50848 0.14385 0.79541
C 7.71903 -0.16397 -0.33423
C 6.38759 -0.56811 0.16214
C 6.48847 -0.44428 1.55605
C 7.78442 0.02462 1.90265
C 5.27462 -0.93478 -0.64592
C 5.78991 -0.59346 2.81242
O 4.69355 -1.03877 3.14923
C 6.65397 0.09394 3.95578
C 6.73167 -0.85991 5.11623
O 7.32836 -1.94520 5.00346
O 6.28059 -0.24374 6.22404
C 6.34823 -1.14602 7.40436
H 12.60693 3.65237 3.69340
H 13.28695 1.93590 -2.27341
H 7.46973 -0.42906 -2.31390
H 8.38068 2.05878 5.68677
H 11.05529 2.94281 5.64176
H 8.52008 4.09571 4.55380
H 9.98854 4.55775 3.66811
H 9.89333 4.94371 5.35974
H 11.00808 0.56937 5.89707
H 9.48256 -0.38863 5.88194
H 9.21396 1.66763 7.83314
H 10.88610 1.23475 7.87136
H 14.69625 3.77313 3.44659
H 15.57731 4.31734 2.05852
H 16.02968 2.74846 2.76614
H 16.88347 3.61400 0.39279
H 17.68765 2.46199 -0.82082
H 17.08369 1.91537 0.76973
H 11.90731 0.57736 -3.93191
H 8.96403 1.00587 -4.03309
H 11.76147 2.45439 -5.19071
H 11.21416 3.31413 -3.70837
H 10.06555 2.65912 -4.76065
H 10.17593 -0.80971 -5.30067
H 8.72717 -1.33207 -4.46210
H 11.57864 -1.73814 -3.92697
H 10.26478 -2.96905 -3.86809
H 10.53592 -1.79617 -2.50239
H 4.82868 -1.80599 -0.18481
H 5.57731 -1.13766 -1.67110
H 4.66992 -0.02726 -0.56842
H 6.15765 1.02700 4.22531
H 5.34165 -1.18901 7.83173
H 7.15117 -0.73801 8.04667
H 6.54559 -2.19590 7.22200

