%nproc=24
%mem=175gb
#p cam-b3lyp/Def2SVP td=(nstates=5)

TDDFT excited states in gaussian

0 1
Mg 13.14537 1.19054 0.99547
C 12.52537 3.55296 3.62485
C 12.21056 3.62203 -1.20648
C 13.24766 -0.99225 -1.30505
C 12.92077 -1.32782 3.39403
N 12.47595 3.27765 1.29229
C 12.33814 4.08598 2.33246
C 12.05807 5.56744 1.96310
C 11.42460 5.33627 0.50566
C 12.10182 4.01385 0.15174
C 9.92189 5.11148 0.53135
C 13.37093 6.42360 1.88959
C 13.14978 7.93696 1.83897
H 14.10925 8.80369 2.51770
N 13.25943 1.40498 -0.97420
C 12.85384 2.46662 -1.70199
C 13.13683 2.12466 -3.10454
C 13.59053 0.70839 -3.15970
C 13.35852 0.30364 -1.78768
C 13.04522 3.12469 -4.22033
C 14.13033 -0.14472 -4.26742
O 14.23659 -1.41637 -4.14730
C 14.44322 0.54075 -5.52985
N 12.88262 -0.87181 0.99594
C 13.03306 -1.58815 -0.13196
C 13.06907 -3.06875 0.16291
C 13.15456 -3.18770 1.75543
C 13.05902 -1.69150 2.12644
C 11.87513 -3.87727 -0.34421
C 14.33020 -4.01982 2.33691
C 15.64215 -3.31964 2.06504
N 12.97422 1.10301 3.14746
C 12.86898 -0.05525 3.94836
C 12.65812 0.39502 5.33948
C 12.63210 1.79478 5.24731
C 12.79371 2.18853 3.89146
C 12.47219 -0.45141 6.46869
C 12.49404 3.02852 5.98726
O 12.41924 3.32264 7.17958
C 12.29220 4.21831 4.95283
C 13.21565 5.33827 5.34710
O 14.44909 5.19183 5.28542
O 12.49614 6.46162 5.52244
C 13.36947 7.60341 5.90378
H 11.72103 4.23475 -1.96400
H 13.38719 -1.78430 -2.04442
H 12.93914 -2.04930 4.21367
H 11.34257 6.06803 2.60438
H 11.72907 6.11762 -0.18582
H 9.54441 5.02649 1.53953
H 9.75251 4.19272 -0.01477
H 9.41350 5.89693 -0.03517
H 13.84422 6.27005 0.91124
H 14.02955 6.18159 2.70094
H 12.12357 8.21288 2.11047
H 13.25101 8.26798 0.80253
H 12.52783 4.03769 -3.90074
H 12.38835 2.69317 -4.98334
H 14.01562 3.34243 -4.67153
H 13.54728 1.02693 -5.90849
H 14.90016 -0.21755 -6.16865
H 15.17000 1.33499 -5.32589
H 13.94838 -3.52830 -0.27152
H 12.26191 -3.67343 2.17624
H 12.16405 -4.70842 -1.01487
H 11.19449 -3.20258 -0.84626
H 11.24432 -4.30605 0.43261
H 14.38830 -4.99157 1.84045
H 14.24163 -4.20703 3.40185
H 15.88005 -3.62944 1.04302
H 16.40572 -3.65117 2.76582
H 15.51322 -2.23107 2.05794
H 13.07007 -0.03756 7.26980
H 12.75796 -1.47768 6.24763
H 11.39363 -0.34797 6.61449
H 11.24415 4.51695 4.99744
H 12.97613 8.00711 6.84186
H 13.37666 8.27947 5.02820
H 14.39286 7.38051 6.18209

