%nproc=24
%mem=175gb
#p cam-b3lyp/Def2SVP td=(nstates=5)

TDDFT excited states in gaussian

0 1
Mg 10.50227 0.94578 0.80464
C 11.28004 3.46742 3.23682
C 10.38292 -1.28869 3.37904
C 10.26234 -1.37179 -1.34912
C 11.78819 3.08880 -1.62426
N 10.80892 1.17996 2.98257
C 11.03882 2.19679 3.79962
C 10.92907 1.84734 5.30806
C 11.21869 0.27075 5.21135
C 10.74332 0.02217 3.78135
C 12.69621 -0.07569 5.29054
C 9.49860 2.13422 5.88554
C 9.40478 2.10954 7.41274
H 8.49226 3.04168 8.06917
N 9.87029 -0.92564 0.99684
C 9.87295 -1.67414 2.11980
C 9.32651 -2.98370 1.73171
C 9.15477 -3.00094 0.25357
C 9.78915 -1.74694 -0.10016
C 8.94768 -4.03634 2.73265
C 8.53498 -3.98928 -0.68731
O 8.70842 -3.91238 -1.95492
C 7.79648 -5.10331 -0.07489
N 11.14941 0.77789 -1.16395
C 10.86831 -0.31626 -1.89315
C 11.19155 -0.09744 -3.35192
C 11.52317 1.46099 -3.48941
C 11.41652 1.87432 -2.00510
C 12.35768 -0.91636 -3.90501
C 10.70876 2.26376 -4.54058
C 9.26064 2.35013 -4.11529
N 11.20869 2.98681 0.74774
C 11.72795 3.67891 -0.36826
C 12.18218 5.00020 0.11162
C 11.91464 4.97617 1.48870
C 11.35323 3.72042 1.84564
C 12.79842 6.00724 -0.68352
C 11.98930 5.72360 2.72339
O 12.29566 6.87675 3.02361
C 11.69858 4.73315 3.93206
C 10.70184 5.39381 4.84451
O 9.54292 5.62189 4.45531
O 11.21204 5.44893 6.08831
C 10.25556 6.08618 7.03218
H 10.54455 -2.10905 4.07888
H 10.10132 -2.09573 -2.15128
H 12.11044 3.85100 -2.33692
H 11.66952 2.32335 5.93966
H 10.60952 -0.28683 5.91802
H 13.31812 0.80706 5.28003
H 12.90046 -0.69271 4.42531
H 12.88924 -0.70655 6.16293
H 8.83891 1.29114 5.64312
H 9.11806 3.06622 5.51514
H 10.39322 2.14115 7.88700
H 8.99103 1.14583 7.71946
H 9.34166 -3.80370 3.72968
H 9.46818 -4.95548 2.44259
H 7.87316 -4.23029 2.75370
H 8.46144 -5.66012 0.58104
H 7.35197 -5.65201 -0.90749
H 7.00279 -4.69092 0.55805
H 10.33819 -0.33157 -3.97646
H 12.56801 1.63040 -3.78849
H 12.07907 -1.53991 -4.77543
H 12.75152 -1.53163 -3.10696
H 13.22990 -0.33617 -4.20134
H 10.71921 1.74665 -5.50320
H 11.08974 3.26550 -4.70898
H 8.84402 1.40036 -4.46380
H 8.77054 3.19547 -4.59407
H 9.17168 2.36802 -3.02285
H 12.34672 6.94829 -0.39910
H 12.67048 5.80888 -1.74562
H 13.83907 5.89561 -0.36753
H 12.64784 4.54070 4.43349
H 10.78123 6.92214 7.50389
H 9.90408 5.27353 7.69537
H 9.39420 6.58968 6.60909

