%nproc=24
%mem=175gb
#p cam-b3lyp/Def2SVP td=(nstates=5)

TDDFT excited states in gaussian

0 1
Mg 0.00000 0.00000 0.00000
C -0.21700 -2.21800 2.80100
C -1.25500 2.44200 2.02600
C -0.24500 1.85000 -2.56400
C 0.14600 -2.82400 -2.03700
N -0.61700 -0.00900 2.12600
C -0.59400 -0.90800 3.10500
C -0.93600 -0.30900 4.50200
C -1.77300 0.96400 4.03200
C -1.15500 1.16800 2.66000
C -3.26300 0.68500 3.86300
C 0.34500 0.11000 5.29900
C 0.12400 0.39700 6.78700
H 1.16800 0.03300 7.73300
N -0.18500 1.96100 -0.15200
C -0.70300 2.80000 0.77700
C -0.62000 4.15600 0.19300
C -0.18700 4.01500 -1.22500
C -0.21400 2.58300 -1.38000
C -0.88700 5.40600 0.97400
C 0.18100 5.01300 -2.27700
O 0.30300 4.69000 -3.50800
C 0.31000 6.41400 -1.83700
N -0.26500 -0.41300 -2.02900
C -0.27900 0.56900 -2.93700
C -0.19600 0.02400 -4.33200
C 0.12400 -1.53300 -4.18000
C 0.08600 -1.63200 -2.63500
C -1.45100 0.20500 -5.19700
C 1.37300 -2.07000 -4.92300
C 2.62600 -1.49000 -4.30600
N 0.15000 -2.14400 0.30300
C 0.17300 -3.13600 -0.68800
C 0.17300 -4.43800 0.00400
C 0.13300 -4.11100 1.35800
C 0.08300 -2.69500 1.50200
C 0.14900 -5.71500 -0.62300
C 0.09600 -4.62900 2.71600
O 0.20800 -5.74700 3.22100
C -0.25500 -3.42800 3.70100
C 0.71700 -3.48200 4.84800
O 1.93100 -3.25500 4.66900
O 0.03800 -3.55600 6.00300
C 0.94300 -3.58300 7.18300
H -1.85900 3.22000 2.49700
H -0.21800 2.45300 -3.47400
H 0.27600 -3.74700 -2.60500
H -1.55400 -0.94900 5.13200
H -1.58500 1.83100 4.66500
H -3.48400 -0.37700 3.96900
H -3.51100 1.02700 2.85800
H -3.85200 1.30100 4.54300
H 0.66900 1.09600 4.96600
H 1.13000 -0.63900 5.18900
H -0.84400 0.02600 7.12500
H 0.06200 1.47700 6.92100
H -1.34400 5.18600 1.93800
H -1.65100 5.96300 0.43200
H 0.00700 6.02000 1.08400
H -0.63500 6.74400 -1.40500
H 0.66500 6.97000 -2.70400
H 1.04800 6.46600 -1.03600
H 0.60800 0.50100 -4.89100
H -0.69200 -2.15600 -4.54700
H -1.26700 0.74000 -6.12900
H -2.20400 0.71400 -4.59600
H -1.96700 -0.72000 -5.45300
H 1.35600 -1.75900 -5.96700
H 1.45200 -3.15700 -4.90200
H 2.71400 -0.52200 -4.79800
H 3.48700 -2.12100 -4.52900
H 2.49500 -1.30300 -3.24000
H 0.86700 -6.33300 -0.08400
H 0.40400 -5.64200 -1.68000
H -0.89100 -5.99900 -0.46300
H -1.28300 -3.58100 4.02800
H 0.69800 -4.47800 7.75500
H 0.83300 -2.61900 7.68000
H 2.00000 -3.75400 6.97600
Mg 31.54041 2.83176 2.39641
C 31.70644 1.48519 -0.92597
C 30.85927 -0.32903 3.48271
C 30.94373 4.05253 5.26366
C 31.09828 5.97242 0.95193
N 31.33615 0.90957 1.32138
C 31.48144 0.50926 0.06719
C 31.45981 -1.03118 -0.12290
C 30.63013 -1.42442 1.19463
C 30.98687 -0.22794 2.07431
C 29.12574 -1.42766 0.97984
C 32.89893 -1.65612 -0.10329
C 32.97754 -3.10500 -0.58944
H 34.16107 -3.52608 -1.33402
N 31.46790 1.95548 4.17558
C 31.19980 0.65820 4.43338
C 31.24661 0.52091 5.89732
C 31.40146 1.87679 6.49089
C 31.25289 2.70087 5.30813
C 31.22744 -0.81031 6.59078
C 31.63087 2.35351 7.89314
O 31.49627 3.58669 8.21560
C 31.92635 1.32050 8.89668
N 30.87626 4.69946 3.02329
C 30.75142 4.98564 4.33113
C 30.52710 6.46328 4.54718
C 30.76950 7.14750 3.12217
C 31.01538 5.88162 2.27218
C 29.14654 6.85678 5.07214
C 31.81586 8.29381 3.06074
C 33.20045 7.74292 3.31533
N 31.60341 3.64672 0.39643
C 31.36348 4.98428 0.01244
C 31.40702 5.02799 -1.46358
C 31.64833 3.69804 -1.83971
C 31.72804 2.87952 -0.68075
C 31.18799 6.18136 -2.26849
C 31.84317 2.79863 -2.95407
O 31.96542 2.93646 -4.17054
C 31.76361 1.30459 -2.41753
C 32.92959 0.54384 -2.98698
O 34.09420 0.83804 -2.66491
O 32.47176 -0.53786 -3.64325
C 33.59179 -1.33067 -4.21666
H 30.41716 -1.23419 3.89997
H 30.83785 4.54414 6.23350
H 31.06733 6.93102 0.42963
H 30.93603 -1.37238 -1.00777
H 31.00191 -2.34588 1.63515
H 28.85714 -1.04875 0.00495
H 28.71624 -0.79601 1.75726
H 28.72139 -2.42785 1.16000
H 33.21699 -1.79003 0.93865
H 33.58524 -1.04981 -0.66187
H 32.06437 -3.41449 -1.11220
H 33.02272 -3.76170 0.28275
H 30.94127 -1.61713 5.90481
H 30.41500 -0.77686 7.32473
H 32.16343 -1.02861 7.10938
H 31.10703 0.60641 8.93192
H 32.14768 1.86288 9.81794
H 32.81452 0.76485 8.57573
H 31.24221 6.86350 5.25537
H 29.85264 7.61413 2.73299
H 29.18623 7.43065 6.01722
H 28.55997 5.95647 5.19830
H 28.53670 7.43471 4.37982
H 31.62301 9.02527 3.84936
H 31.81477 8.82952 2.11734
H 33.25341 7.70355 4.40745
H 33.95851 8.40833 2.90714
H 33.28971 6.71550 2.94372
H 31.94387 6.16904 -3.04243
H 31.23756 7.09370 -1.67777
H 30.17527 5.97926 -2.62740
H 30.80764 0.89086 -2.74085
H 33.39648 -1.43046 -5.28884
H 33.63220 -2.26329 -3.62308
H 34.57580 -0.87664 -4.22229

