%nproc=24
%mem=175gb
#p cam-b3lyp/Def2SVP td=(nstates=5)

TDDFT excited states in gaussian

0 1
Mg 0.00000 0.00000 0.00000
C -0.21700 -2.21800 2.80100
C -1.25500 2.44200 2.02600
C -0.24500 1.85000 -2.56400
C 0.14600 -2.82400 -2.03700
N -0.61700 -0.00900 2.12600
C -0.59400 -0.90800 3.10500
C -0.93600 -0.30900 4.50200
C -1.77300 0.96400 4.03200
C -1.15500 1.16800 2.66000
C -3.26300 0.68500 3.86300
C 0.34500 0.11000 5.29900
C 0.12400 0.39700 6.78700
H 1.16800 0.03300 7.73300
N -0.18500 1.96100 -0.15200
C -0.70300 2.80000 0.77700
C -0.62000 4.15600 0.19300
C -0.18700 4.01500 -1.22500
C -0.21400 2.58300 -1.38000
C -0.88700 5.40600 0.97400
C 0.18100 5.01300 -2.27700
O 0.30300 4.69000 -3.50800
C 0.31000 6.41400 -1.83700
N -0.26500 -0.41300 -2.02900
C -0.27900 0.56900 -2.93700
C -0.19600 0.02400 -4.33200
C 0.12400 -1.53300 -4.18000
C 0.08600 -1.63200 -2.63500
C -1.45100 0.20500 -5.19700
C 1.37300 -2.07000 -4.92300
C 2.62600 -1.49000 -4.30600
N 0.15000 -2.14400 0.30300
C 0.17300 -3.13600 -0.68800
C 0.17300 -4.43800 0.00400
C 0.13300 -4.11100 1.35800
C 0.08300 -2.69500 1.50200
C 0.14900 -5.71500 -0.62300
C 0.09600 -4.62900 2.71600
O 0.20800 -5.74700 3.22100
C -0.25500 -3.42800 3.70100
C 0.71700 -3.48200 4.84800
O 1.93100 -3.25500 4.66900
O 0.03800 -3.55600 6.00300
C 0.94300 -3.58300 7.18300
H -1.85900 3.22000 2.49700
H -0.21800 2.45300 -3.47400
H 0.27600 -3.74700 -2.60500
H -1.55400 -0.94900 5.13200
H -1.58500 1.83100 4.66500
H -3.48400 -0.37700 3.96900
H -3.51100 1.02700 2.85800
H -3.85200 1.30100 4.54300
H 0.66900 1.09600 4.96600
H 1.13000 -0.63900 5.18900
H -0.84400 0.02600 7.12500
H 0.06200 1.47700 6.92100
H -1.34400 5.18600 1.93800
H -1.65100 5.96300 0.43200
H 0.00700 6.02000 1.08400
H -0.63500 6.74400 -1.40500
H 0.66500 6.97000 -2.70400
H 1.04800 6.46600 -1.03600
H 0.60800 0.50100 -4.89100
H -0.69200 -2.15600 -4.54700
H -1.26700 0.74000 -6.12900
H -2.20400 0.71400 -4.59600
H -1.96700 -0.72000 -5.45300
H 1.35600 -1.75900 -5.96700
H 1.45200 -3.15700 -4.90200
H 2.71400 -0.52200 -4.79800
H 3.48700 -2.12100 -4.52900
H 2.49500 -1.30300 -3.24000
H 0.86700 -6.33300 -0.08400
H 0.40400 -5.64200 -1.68000
H -0.89100 -5.99900 -0.46300
H -1.28300 -3.58100 4.02800
H 0.69800 -4.47800 7.75500
H 0.83300 -2.61900 7.68000
H 2.00000 -3.75400 6.97600
Mg 10.51766 0.95027 0.80551
C 9.98349 -1.25470 3.58612
C 9.55134 3.51028 2.84197
C 10.54397 2.84994 -1.73575
C 10.32899 -1.84432 -1.26822
N 9.87459 0.99590 2.92132
C 9.76955 0.10469 3.89551
C 9.49395 0.71301 5.29678
C 8.82299 2.09565 4.83096
C 9.47937 2.23586 3.45903
C 7.31938 1.99840 4.63336
C 10.81231 0.95994 6.11101
C 10.60367 1.26094 7.59682
H 11.58723 0.76048 8.55317
N 10.58549 2.92988 0.68255
C 10.17185 3.81750 1.61115
C 10.41737 5.14798 1.03347
C 10.85677 4.97289 -0.37756
C 10.65471 3.54728 -0.54160
C 10.30757 6.41455 1.83170
C 11.36160 5.93215 -1.41253
O 11.45928 5.60099 -2.64688
C 11.64974 7.29910 -0.95437
N 10.23637 0.59487 -1.22351
C 10.35271 1.58838 -2.12202
C 10.38254 1.04810 -3.53185
C 10.50584 -0.53924 -3.38111
C 10.43293 -0.65376 -1.84262
C 9.16930 1.38401 -4.39879
C 11.68776 -1.22649 -4.11828
C 12.99896 -0.81052 -3.49127
N 10.39836 -1.18880 1.08509
C 10.30226 -2.17632 0.08028
C 10.12954 -3.47558 0.76185
C 10.11393 -3.14847 2.12612
C 10.24591 -1.74225 2.28298
C 9.96362 -4.73564 0.12088
C 10.00515 -3.67189 3.46884
O 9.96217 -4.79862 3.96115
C 9.78886 -2.45586 4.46928
C 10.73176 -2.63398 5.62761
O 11.96194 -2.57017 5.45678
O 10.02692 -2.63287 6.77372
C 10.91961 -2.79569 7.95204
H 9.04901 4.34933 3.32422
H 10.65822 3.44756 -2.64309
H 10.36085 -2.77360 -1.84101
H 8.79889 0.14972 5.90782
H 9.11752 2.91607 5.48020
H 6.96590 0.98213 4.72487
H 7.12840 2.37720 3.63783
H 6.80442 2.67806 5.31835
H 11.26014 1.90862 5.78820
H 11.48833 0.13440 6.00100
H 9.58694 1.01696 7.92800
H 10.68254 2.34046 7.74660
H 9.80642 6.24249 2.79224
H 9.62838 7.07851 1.28607
H 11.26858 6.91786 1.95739
H 10.74925 7.73425 -0.52750
H 12.08406 7.81051 -1.81559
H 12.38843 7.24894 -0.14663
H 11.24678 1.41821 -4.06962
H 9.61938 -1.05621 -3.77707
H 9.43422 1.91070 -5.33500
H 8.48272 1.97752 -3.80981
H 8.55381 0.53182 -4.68188
H 11.72493 -0.90046 -5.16062
H 11.62356 -2.30947 -4.12169
H 13.20900 0.14943 -3.97238
H 13.77639 -1.53990 -3.70956
H 12.87973 -0.62222 -2.41797
H 10.58461 -5.44147 0.65631
H 10.23461 -4.68506 -0.93163
H 8.88992 -4.88613 0.26153
H 8.74495 -2.47291 4.78480
H 10.55297 -3.66055 8.51353
H 10.91151 -1.81840 8.47028
H 11.94743 -3.08455 7.76604

