%nproc=24
%mem=175gb
#p cam-b3lyp/Def2SVP td=(nstates=5)

TDDFT excited states in gaussian

0 1
Mg 0.00000 0.00000 0.00000
C -0.21700 -2.21800 2.80100
C -1.25500 2.44200 2.02600
C -0.24500 1.85000 -2.56400
C 0.14600 -2.82400 -2.03700
N -0.61700 -0.00900 2.12600
C -0.59400 -0.90800 3.10500
C -0.93600 -0.30900 4.50200
C -1.77300 0.96400 4.03200
C -1.15500 1.16800 2.66000
C -3.26300 0.68500 3.86300
C 0.34500 0.11000 5.29900
C 0.12400 0.39700 6.78700
H 1.16800 0.03300 7.73300
N -0.18500 1.96100 -0.15200
C -0.70300 2.80000 0.77700
C -0.62000 4.15600 0.19300
C -0.18700 4.01500 -1.22500
C -0.21400 2.58300 -1.38000
C -0.88700 5.40600 0.97400
C 0.18100 5.01300 -2.27700
O 0.30300 4.69000 -3.50800
C 0.31000 6.41400 -1.83700
N -0.26500 -0.41300 -2.02900
C -0.27900 0.56900 -2.93700
C -0.19600 0.02400 -4.33200
C 0.12400 -1.53300 -4.18000
C 0.08600 -1.63200 -2.63500
C -1.45100 0.20500 -5.19700
C 1.37300 -2.07000 -4.92300
C 2.62600 -1.49000 -4.30600
N 0.15000 -2.14400 0.30300
C 0.17300 -3.13600 -0.68800
C 0.17300 -4.43800 0.00400
C 0.13300 -4.11100 1.35800
C 0.08300 -2.69500 1.50200
C 0.14900 -5.71500 -0.62300
C 0.09600 -4.62900 2.71600
O 0.20800 -5.74700 3.22100
C -0.25500 -3.42800 3.70100
C 0.71700 -3.48200 4.84800
O 1.93100 -3.25500 4.66900
O 0.03800 -3.55600 6.00300
C 0.94300 -3.58300 7.18300
H -1.85900 3.22000 2.49700
H -0.21800 2.45300 -3.47400
H 0.27600 -3.74700 -2.60500
H -1.55400 -0.94900 5.13200
H -1.58500 1.83100 4.66500
H -3.48400 -0.37700 3.96900
H -3.51100 1.02700 2.85800
H -3.85200 1.30100 4.54300
H 0.66900 1.09600 4.96600
H 1.13000 -0.63900 5.18900
H -0.84400 0.02600 7.12500
H 0.06200 1.47700 6.92100
H -1.34400 5.18600 1.93800
H -1.65100 5.96300 0.43200
H 0.00700 6.02000 1.08400
H -0.63500 6.74400 -1.40500
H 0.66500 6.97000 -2.70400
H 1.04800 6.46600 -1.03600
H 0.60800 0.50100 -4.89100
H -0.69200 -2.15600 -4.54700
H -1.26700 0.74000 -6.12900
H -2.20400 0.71400 -4.59600
H -1.96700 -0.72000 -5.45300
H 1.35600 -1.75900 -5.96700
H 1.45200 -3.15700 -4.90200
H 2.71400 -0.52200 -4.79800
H 3.48700 -2.12100 -4.52900
H 2.49500 -1.30300 -3.24000
H 0.86700 -6.33300 -0.08400
H 0.40400 -5.64200 -1.68000
H -0.89100 -5.99900 -0.46300
H -1.28300 -3.58100 4.02800
H 0.69800 -4.47800 7.75500
H 0.83300 -2.61900 7.68000
H 2.00000 -3.75400 6.97600
Mg 15.77417 1.41235 1.19826
C 15.92706 0.27851 -2.20323
C 15.11393 -1.81392 2.08701
C 15.18857 2.44715 4.13997
C 15.30917 4.63550 -0.04302
N 15.57251 -0.43932 0.00540
C 15.71234 -0.75913 -1.27230
C 15.69670 -2.28463 -1.55893
C 14.87653 -2.76418 -0.26424
C 15.23286 -1.62371 0.68709
C 13.37094 -2.76135 -0.47050
C 17.13878 -2.90241 -1.58669
C 17.22123 -4.31739 -2.16357
H 18.40233 -4.68487 -2.93973
N 15.71605 0.42541 2.91906
C 15.45544 -0.88685 3.09609
C 15.51140 -1.11582 4.54819
C 15.66346 0.20074 5.22514
C 15.50421 1.09692 4.09749
C 15.50240 -2.48815 5.15650
C 15.89883 0.58934 6.65336
O 15.76043 1.79909 7.05360
C 16.20490 -0.50333 7.58817
N 15.10509 3.23354 1.94522
C 14.98654 3.43617 3.26915
C 14.75668 4.89613 3.57911
C 14.98763 5.66993 2.19872
C 15.23438 4.46133 1.26932
C 13.37740 5.24894 4.13543
C 16.02832 6.82301 2.20385
C 17.41690 6.26406 2.41559
N 15.82177 2.35194 -0.74672
C 15.57345 3.70982 -1.04435
C 15.60820 3.84661 -2.51490
C 15.85343 2.54419 -2.97540
C 15.94366 1.65472 -1.87077
C 15.37917 5.04728 -3.24433
C 16.04592 1.71773 -4.14527
O 16.16045 1.93249 -5.35130
C 15.97637 0.19248 -3.70349
C 17.14251 -0.52509 -4.32617
O 18.30761 -0.24598 -3.99263
O 16.68585 -1.56557 -5.04675
C 17.80617 -2.31513 -5.67513
H 14.67843 -2.74575 2.44884
H 15.08608 2.87618 5.13943
H 15.27077 5.62493 -0.50371
H 15.16935 -2.57203 -2.46064
H 15.25510 -3.70969 0.11529
H 13.09492 -2.32313 -1.41809
H 12.96306 -2.18195 0.34741
H 12.97225 -3.77289 -0.35149
H 17.46350 -3.10009 -0.55702
H 17.81902 -2.25873 -2.10973
H 16.30646 -4.59787 -2.69975
H 17.27450 -5.02748 -1.33475
H 15.21596 -3.25157 4.42265
H 14.69410 -2.50501 5.89557
H 16.44239 -2.73403 5.65515
H 15.38909 -1.22228 7.58287
H 16.42909 -0.01895 8.54053
H 17.09374 -1.03326 7.22796
H 15.47405 5.25451 4.30715
H 14.06638 6.15559 1.84478
H 13.41995 5.76234 5.11455
H 12.79573 4.33957 4.20785
H 12.76089 5.86629 3.48427
H 15.83670 7.50239 3.03804
H 16.01927 7.41706 1.29610
H 17.47639 6.15626 3.50275
H 18.16949 6.95761 2.04595
H 17.50872 5.26254 1.97950
H 16.13059 5.08747 -4.02167
H 15.42798 5.92084 -2.59758
H 14.36532 4.86316 -3.60966
H 15.02046 -0.20480 -4.04695
H 17.60508 -2.34817 -6.75038
H 17.85433 -3.28307 -5.14172
H 18.78802 -1.85677 -5.65758

