%nproc=24
%mem=175gb
#p cam-b3lyp/Def2SVP td=(nstates=5)

TDDFT excited states in gaussian

0 1
Mg 0.00000 0.00000 0.00000
C -0.21700 -2.21800 2.80100
C -1.25500 2.44200 2.02600
C -0.24500 1.85000 -2.56400
C 0.14600 -2.82400 -2.03700
N -0.61700 -0.00900 2.12600
C -0.59400 -0.90800 3.10500
C -0.93600 -0.30900 4.50200
C -1.77300 0.96400 4.03200
C -1.15500 1.16800 2.66000
C -3.26300 0.68500 3.86300
C 0.34500 0.11000 5.29900
C 0.12400 0.39700 6.78700
H 1.16800 0.03300 7.73300
N -0.18500 1.96100 -0.15200
C -0.70300 2.80000 0.77700
C -0.62000 4.15600 0.19300
C -0.18700 4.01500 -1.22500
C -0.21400 2.58300 -1.38000
C -0.88700 5.40600 0.97400
C 0.18100 5.01300 -2.27700
O 0.30300 4.69000 -3.50800
C 0.31000 6.41400 -1.83700
N -0.26500 -0.41300 -2.02900
C -0.27900 0.56900 -2.93700
C -0.19600 0.02400 -4.33200
C 0.12400 -1.53300 -4.18000
C 0.08600 -1.63200 -2.63500
C -1.45100 0.20500 -5.19700
C 1.37300 -2.07000 -4.92300
C 2.62600 -1.49000 -4.30600
N 0.15000 -2.14400 0.30300
C 0.17300 -3.13600 -0.68800
C 0.17300 -4.43800 0.00400
C 0.13300 -4.11100 1.35800
C 0.08300 -2.69500 1.50200
C 0.14900 -5.71500 -0.62300
C 0.09600 -4.62900 2.71600
O 0.20800 -5.74700 3.22100
C -0.25500 -3.42800 3.70100
C 0.71700 -3.48200 4.84800
O 1.93100 -3.25500 4.66900
O 0.03800 -3.55600 6.00300
C 0.94300 -3.58300 7.18300
H -1.85900 3.22000 2.49700
H -0.21800 2.45300 -3.47400
H 0.27600 -3.74700 -2.60500
H -1.55400 -0.94900 5.13200
H -1.58500 1.83100 4.66500
H -3.48400 -0.37700 3.96900
H -3.51100 1.02700 2.85800
H -3.85200 1.30100 4.54300
H 0.66900 1.09600 4.96600
H 1.13000 -0.63900 5.18900
H -0.84400 0.02600 7.12500
H 0.06200 1.47700 6.92100
H -1.34400 5.18600 1.93800
H -1.65100 5.96300 0.43200
H 0.00700 6.02000 1.08400
H -0.63500 6.74400 -1.40500
H 0.66500 6.97000 -2.70400
H 1.04800 6.46600 -1.03600
H 0.60800 0.50100 -4.89100
H -0.69200 -2.15600 -4.54700
H -1.26700 0.74000 -6.12900
H -2.20400 0.71400 -4.59600
H -1.96700 -0.72000 -5.45300
H 1.35600 -1.75900 -5.96700
H 1.45200 -3.15700 -4.90200
H 2.71400 -0.52200 -4.79800
H 3.48700 -2.12100 -4.52900
H 2.49500 -1.30300 -3.24000
H 0.86700 -6.33300 -0.08400
H 0.40400 -5.64200 -1.68000
H -0.89100 -5.99900 -0.46300
H -1.28300 -3.58100 4.02800
H 0.69800 -4.47800 7.75500
H 0.83300 -2.61900 7.68000
H 2.00000 -3.75400 6.97600
Mg 7.89034 0.70820 0.60647
C 5.85217 -0.73211 3.18531
C 8.60973 3.22831 2.78962
C 9.32505 2.23113 -1.77885
C 6.13818 -1.25243 -1.68080
N 7.25326 1.08751 2.69034
C 6.52677 0.43921 3.58826
C 6.58767 1.03843 5.01892
C 6.98936 2.54435 4.63199
C 7.69416 2.27576 3.30392
C 5.78933 3.43731 4.36383
C 7.69038 0.35941 5.90492
C 7.60045 0.67704 7.39917
H 7.95951 -0.36656 8.35543
N 9.21069 2.18949 0.63807
C 9.38166 3.10650 1.61334
C 10.46288 3.98987 1.14993
C 10.80389 3.61905 -0.25040
C 9.75600 2.65826 -0.53129
C 11.11860 5.00784 2.03718
C 11.88550 4.06592 -1.18669
O 11.85057 3.78811 -2.43746
C 12.93822 4.91731 -0.61362
N 7.61382 0.67922 -1.45388
C 8.40784 1.39648 -2.26813
C 8.20220 1.00695 -3.71256
C 7.27564 -0.29608 -3.67841
C 7.02152 -0.38611 -2.15765
C 7.55495 2.06818 -4.60208
C 7.80624 -1.55645 -4.41503
C 9.02614 -2.09511 -3.70294
N 6.41635 -0.86765 0.71652
C 5.79676 -1.53304 -0.36396
C 4.78280 -2.44228 0.20842
C 4.86757 -2.22417 1.59179
C 5.84993 -1.23323 1.86107
C 3.90675 -3.28392 -0.53339
C 4.34196 -2.59918 2.88477
O 3.55269 -3.45285 3.28730
C 4.86732 -1.55835 3.96507
C 5.38359 -2.33472 5.14543
O 6.38247 -3.06688 5.03240
O 4.74981 -1.91945 6.25729
C 5.23561 -2.65259 7.45659
H 8.71811 4.17881 3.31276
H 9.86656 2.64588 -2.63221
H 5.61866 -1.96858 -2.32103
H 5.64625 1.03080 5.55507
H 7.68404 2.96575 5.35393
H 4.86455 2.87970 4.36234
H 5.96461 3.88191 3.39293
H 5.77018 4.26703 5.07624
H 8.66347 0.81207 5.67484
H 7.69360 -0.70356 5.76100
H 6.63785 1.12924 7.66724
H 8.33495 1.45118 7.63419
H 10.54624 5.16571 2.95961
H 11.06366 5.96945 1.51550
H 12.16603 4.77604 2.24168
H 12.48872 5.81388 -0.19342
H 13.66688 5.05972 -1.41403
H 13.40761 4.38090 0.21857
H 9.14474 0.75569 -4.18328
H 6.29879 -0.11390 -4.15000
H 8.16938 2.33301 -5.48322
H 7.35712 2.94449 -3.99919
H 6.56385 1.81600 -4.97533
H 8.12694 -1.29678 -5.42689
H 7.06887 -2.34726 -4.50388
H 9.83675 -1.47674 -4.09995
H 9.17717 -3.14562 -3.94306
H 8.96685 -1.90818 -2.62442
H 3.89122 -4.24015 -0.02755
H 4.23270 -3.38504 -1.56650
H 2.97536 -2.71745 -0.45040
H 4.02937 -0.91396 4.23373
H 4.35868 -3.10032 7.93430
H 5.80835 -1.91303 8.04716
H 5.85622 -3.52581 7.29291

