%nproc=24
%mem=175gb
#p cam-b3lyp/Def2SVP td=(nstates=5)

TDDFT excited states in gaussian

0 1
Mg 0.00000 0.00000 0.00000
C -0.21700 -2.21800 2.80100
C -1.25500 2.44200 2.02600
C -0.24500 1.85000 -2.56400
C 0.14600 -2.82400 -2.03700
N -0.61700 -0.00900 2.12600
C -0.59400 -0.90800 3.10500
C -0.93600 -0.30900 4.50200
C -1.77300 0.96400 4.03200
C -1.15500 1.16800 2.66000
C -3.26300 0.68500 3.86300
C 0.34500 0.11000 5.29900
C 0.12400 0.39700 6.78700
H 1.16800 0.03300 7.73300
N -0.18500 1.96100 -0.15200
C -0.70300 2.80000 0.77700
C -0.62000 4.15600 0.19300
C -0.18700 4.01500 -1.22500
C -0.21400 2.58300 -1.38000
C -0.88700 5.40600 0.97400
C 0.18100 5.01300 -2.27700
O 0.30300 4.69000 -3.50800
C 0.31000 6.41400 -1.83700
N -0.26500 -0.41300 -2.02900
C -0.27900 0.56900 -2.93700
C -0.19600 0.02400 -4.33200
C 0.12400 -1.53300 -4.18000
C 0.08600 -1.63200 -2.63500
C -1.45100 0.20500 -5.19700
C 1.37300 -2.07000 -4.92300
C 2.62600 -1.49000 -4.30600
N 0.15000 -2.14400 0.30300
C 0.17300 -3.13600 -0.68800
C 0.17300 -4.43800 0.00400
C 0.13300 -4.11100 1.35800
C 0.08300 -2.69500 1.50200
C 0.14900 -5.71500 -0.62300
C 0.09600 -4.62900 2.71600
O 0.20800 -5.74700 3.22100
C -0.25500 -3.42800 3.70100
C 0.71700 -3.48200 4.84800
O 1.93100 -3.25500 4.66900
O 0.03800 -3.55600 6.00300
C 0.94300 -3.58300 7.18300
H -1.85900 3.22000 2.49700
H -0.21800 2.45300 -3.47400
H 0.27600 -3.74700 -2.60500
H -1.55400 -0.94900 5.13200
H -1.58500 1.83100 4.66500
H -3.48400 -0.37700 3.96900
H -3.51100 1.02700 2.85800
H -3.85200 1.30100 4.54300
H 0.66900 1.09600 4.96600
H 1.13000 -0.63900 5.18900
H -0.84400 0.02600 7.12500
H 0.06200 1.47700 6.92100
H -1.34400 5.18600 1.93800
H -1.65100 5.96300 0.43200
H 0.00700 6.02000 1.08400
H -0.63500 6.74400 -1.40500
H 0.66500 6.97000 -2.70400
H 1.04800 6.46600 -1.03600
H 0.60800 0.50100 -4.89100
H -0.69200 -2.15600 -4.54700
H -1.26700 0.74000 -6.12900
H -2.20400 0.71400 -4.59600
H -1.96700 -0.72000 -5.45300
H 1.35600 -1.75900 -5.96700
H 1.45200 -3.15700 -4.90200
H 2.71400 -0.52200 -4.79800
H 3.48700 -2.12100 -4.52900
H 2.49500 -1.30300 -3.24000
H 0.86700 -6.33300 -0.08400
H 0.40400 -5.64200 -1.68000
H -0.89100 -5.99900 -0.46300
H -1.28300 -3.58100 4.02800
H 0.69800 -4.47800 7.75500
H 0.83300 -2.61900 7.68000
H 2.00000 -3.75400 6.97600
Mg 7.89116 0.70715 0.59238
C 7.63615 3.30871 -1.86646
C 7.40134 -1.52713 -1.93797
C 7.66104 -1.57463 2.78509
C 7.22068 3.12157 3.01452
N 7.57281 0.97789 -1.57962
C 7.55698 2.00961 -2.41006
C 7.53110 1.62470 -3.91364
C 6.88751 0.15989 -3.77582
C 7.34097 -0.17374 -2.35605
C 5.36811 0.16511 -3.80311
C 8.96850 1.56395 -4.53991
C 9.00175 1.49835 -6.06842
H 10.08243 2.18445 -6.77119
N 8.06533 -1.26221 0.41966
C 7.85088 -2.00412 -0.68708
C 8.09193 -3.39965 -0.28887
C 8.30547 -3.43712 1.18344
C 7.99142 -2.06559 1.53035
C 8.18206 -4.52437 -1.27897
C 8.71117 -4.53010 2.12525
O 8.60374 -4.39858 3.39568
C 9.15003 -5.79304 1.51379
N 7.29045 0.71972 2.58270
C 7.33513 -0.40025 3.32539
C 7.12149 -0.09343 4.78847
C 7.16493 1.50106 4.90387
C 7.31362 1.85902 3.40883
C 5.81696 -0.61185 5.39331
C 8.17866 2.10627 5.91319
C 9.59197 1.84839 5.44258
N 7.67930 2.85700 0.62867
C 7.37303 3.66520 1.74541
C 7.22120 5.04953 1.25244
C 7.42862 4.94615 -0.13132
C 7.67122 3.58982 -0.47920
C 6.88266 6.18239 2.04499
C 7.48700 5.67440 -1.37829
O 7.44612 6.86317 -1.69274
C 7.49878 4.62792 -2.57459
C 8.58967 5.02710 -3.53017
O 9.78252 4.98478 -3.18099
O 8.06390 5.18308 -4.75883
C 9.10915 5.56843 -5.74411
H 7.03018 -2.29651 -2.61558
H 7.67726 -2.30570 3.59672
H 7.10840 3.94696 3.72079
H 6.89995 2.25144 -4.53219
H 7.32635 -0.53305 -4.48899
H 4.96841 1.16824 -3.79195
H 5.05616 -0.37631 -2.91960
H 5.00442 -0.41492 -4.65612
H 9.42277 0.59392 -4.30029
H 9.56709 2.38680 -4.20043
H 8.03191 1.75252 -6.51310
H 9.17018 0.46099 -6.36765
H 7.81885 -4.21955 -2.26819
H 7.47298 -5.29364 -0.95445
H 9.18103 -4.96286 -1.32853
H 8.35211 -6.18863 0.88987
H 9.48350 -6.41914 2.34366
H 9.99555 -5.58453 0.84878
H 7.91823 -0.51124 5.39158
H 6.19864 1.91238 5.23089
H 5.97310 -1.27171 6.26753
H 5.26421 -1.12911 4.62037
H 5.11358 0.15886 5.70391
H 8.08160 1.61826 6.88611
H 8.04617 3.17120 6.07241
H 9.78882 0.83243 5.79778
H 10.28069 2.56292 5.88883
H 9.64523 1.83096 4.34782
H 7.53013 6.98901 1.72775
H 6.99741 5.97353 3.10659
H 5.83429 6.31144 1.76300
H 6.51418 4.65473 -3.04300
H 8.77568 6.49744 -6.21679
H 9.23985 4.68784 -6.40079
H 10.07768 5.86354 -5.35772

