%nproc=24
%mem=175gb
#p cam-b3lyp/Def2SVP td=(nstates=5)

TDDFT excited states in gaussian

0 1
Mg 8.94169 0.79849 0.68343
C 9.15598 -1.99087 -1.56437
C 8.07343 -1.42394 3.12095
C 8.30695 3.26861 2.57104
C 8.69984 2.85868 -2.11708
N 8.68232 -1.39795 0.65895
C 8.85085 -2.35853 -0.23729
C 8.76197 -3.79759 0.33783
C 7.87008 -3.48319 1.63573
C 8.25356 -2.02001 1.84724
C 6.37543 -3.55158 1.36983
C 10.16802 -4.37151 0.73236
C 10.19366 -5.87622 1.00973
H 11.38031 -6.63493 0.62414
N 8.76682 0.89432 2.65797
C 8.42830 -0.10909 3.49455
C 8.41865 0.47773 4.84351
C 8.61797 1.94711 4.71728
C 8.54935 2.09973 3.27781
C 8.31219 -0.35098 6.09064
C 8.82210 3.03660 5.72600
O 8.73581 4.27487 5.40648
C 9.03347 2.61076 7.11722
N 8.34679 2.75261 0.29629
C 8.19137 3.63878 1.29553
C 8.03084 5.04171 0.76038
C 8.35406 4.94484 -0.80286
C 8.56782 3.41997 -0.92306
C 6.65365 5.67508 0.95676
C 9.45560 5.89133 -1.35374
C 10.80276 5.49725 -0.79227
N 9.11164 0.54245 -1.45517
C 8.94923 1.53300 -2.44841
C 9.04500 0.85617 -3.75805
C 9.23501 -0.49544 -3.43318
C 9.23597 -0.65296 -2.02084
C 8.90895 1.48144 -5.02952
C 9.42436 -1.82628 -3.96393
O 9.59438 -2.29724 -5.08778
C 9.25515 -2.87180 -2.77876
C 10.40206 -3.84250 -2.84840
O 11.56779 -3.45900 -2.64689
O 9.91555 -5.09461 -2.92519
C 11.01519 -6.09411 -2.98525
H 7.57455 -2.00274 3.89877
H 8.19180 4.17052 3.17666
H 8.73261 3.44547 -3.03756
H 8.25286 -4.51077 -0.29931
H 8.18211 -4.08572 2.48482
H 6.15860 -3.68481 0.32037
H 5.97043 -2.61250 1.72360
H 5.91776 -4.32916 1.98809
H 10.44367 -3.99276 1.72499
H 10.90117 -4.12875 -0.01207
H 9.28503 -6.37659 0.65338
H 10.17764 -6.03001 2.09144
H 8.01122 -1.38134 5.86445
H 7.47778 0.05401 6.67340
H 9.21846 -0.31495 6.69895
H 8.18017 2.02396 7.44887
H 9.24905 3.52525 7.67320
H 9.90442 1.94677 7.15136
H 8.73979 5.71620 1.22468
H 7.47437 5.18819 -1.41667
H 6.68860 6.63326 1.50879
H 6.02070 4.96340 1.47001
H 6.09609 5.86134 0.04044
H 9.27127 6.91763 -1.02681
H 9.51225 5.90370 -2.43708
H 10.81659 5.98973 0.18464
H 11.60525 5.86263 -1.42988
H 10.85531 4.41638 -0.61732
H 9.68927 1.07704 -5.66044
H 8.98203 2.56408 -4.95002
H 7.90051 1.15682 -5.29960
H 8.29202 -3.36579 -2.91269
H 10.85192 -6.69506 -3.88519
H 10.99069 -6.62393 -2.01446
H 12.01944 -5.72469 -3.15695

