%nproc=24
%mem=175gb
#p cam-b3lyp/Def2SVP td=(nstates=5)

TDDFT excited states in gaussian

0 1
Mg 15.77263 1.42390 1.20486
C 15.57838 -0.97237 3.86930
C 14.51650 3.72693 3.38495
C 15.50732 3.43904 -1.23158
C 15.91367 -1.26074 -1.01291
N 15.16581 1.27583 3.32668
C 15.19461 0.32953 4.25298
C 14.86641 0.82350 5.68750
C 14.01313 2.12850 5.30312
C 14.62182 2.42397 3.93387
C 12.53180 1.84547 5.11630
C 16.15527 1.19869 6.49996
C 15.93495 1.39280 8.00181
H 16.99172 0.97687 8.91980
N 15.57992 3.39902 1.18698
C 15.07032 4.17578 2.16588
C 15.13044 5.55493 1.65746
C 15.56441 5.51184 0.23460
C 15.54694 4.08241 -0.00314
C 14.87044 6.75339 2.52322
C 15.92203 6.58100 -0.75293
O 16.04062 6.32953 -2.00414
C 16.03756 7.94847 -0.22553
N 15.50495 1.13974 -0.83718
C 15.47534 2.18489 -1.68258
C 15.55088 1.72654 -3.11945
C 15.88245 0.16338 -3.05490
C 15.85172 -0.03883 -1.52403
C 14.28940 1.94488 -3.95455
C 17.13088 -0.32425 -3.83996
C 18.38739 0.22700 -3.20536
N 15.93780 -0.72392 1.37117
C 15.95375 -1.66242 0.31616
C 15.96354 -3.00649 0.92921
C 15.92908 -2.75498 2.30908
C 15.87948 -1.35354 2.53934
C 15.95208 -4.24271 0.22370
C 15.91265 -3.35662 3.62303
O 16.02530 -4.50313 4.05495
C 15.55716 -2.23256 4.68911
C 16.53514 -2.34511 5.82639
O 17.74339 -2.11200 5.64640
O 15.85610 -2.49537 6.97822
C 16.78264 -2.60038 8.13680
H 13.91760 4.46698 3.91648
H 15.52704 4.09243 -2.10689
H 16.05638 -2.14709 -1.63476
H 14.26132 0.14330 6.27484
H 14.20949 2.94588 5.99210
H 12.31533 0.78830 5.15715
H 12.27592 2.24678 4.14444
H 11.94464 2.41562 5.84191
H 16.47008 2.21321 6.22358
H 16.93106 0.47557 6.33904
H 14.96454 1.00103 8.33008
H 15.87513 2.46418 8.20814
H 14.41267 6.46791 3.47839
H 14.10122 7.34990 2.02090
H 15.75975 7.37108 2.66557
H 15.09559 8.23936 0.23330
H 16.38661 8.55605 -1.06272
H 16.79036 7.95394 0.57064
H 16.35012 2.23387 -3.64570
H 15.06416 -0.44414 -3.46862
H 14.46722 2.54925 -4.86405
H 13.54167 2.41221 -3.32762
H 13.78535 1.03514 -4.27627
H 17.10723 0.05712 -4.86376
H 17.20822 -1.40469 -3.90047
H 18.46226 1.22970 -3.63674
H 19.24930 -0.38204 -3.47033
H 18.26325 0.34251 -2.12236
H 16.66888 -4.88777 0.71421
H 16.19592 -4.10291 -0.82738
H 14.90972 -4.53957 0.36730
H 14.52999 -2.40243 5.01413
H 16.54154 -3.53358 8.65516
H 16.65630 -1.66057 8.70650
H 17.83596 -2.74216 7.92496

