%nproc=24
%mem=175gb
#p cam-b3lyp/Def2SVP td=(nstates=5)

TDDFT excited states in gaussian

0 1
Mg 15.75818 1.42294 1.20351
C 17.51229 3.18358 3.79240
C 14.43083 -0.54870 3.65002
C 14.55675 -0.42705 -1.07717
C 18.05363 2.74666 -1.06020
N 16.01409 1.41699 3.40050
C 16.65758 2.17212 4.27802
C 16.30685 1.87595 5.76087
C 15.80711 0.35923 5.59147
C 15.35375 0.41260 4.13397
C 16.92831 -0.66016 5.70590
C 15.16045 2.80160 6.30030
C 14.97885 2.78138 7.81963
H 14.59148 4.01908 8.49084
N 14.29384 0.08526 1.27330
C 13.87155 -0.60330 2.35443
C 12.78569 -1.47398 1.87797
C 12.71201 -1.36351 0.39572
C 13.89064 -0.56260 0.13216
C 11.89036 -2.24080 2.80736
C 11.74829 -1.90175 -0.61806
O 12.00977 -1.88179 -1.87268
C 10.53109 -2.53732 -0.09272
N 16.35647 1.01999 -0.74636
C 15.62595 0.21940 -1.54218
C 16.09772 0.29667 -2.97461
C 17.14559 1.50404 -3.01728
C 17.16598 1.87452 -1.51804
C 16.75548 -0.96749 -3.52747
C 16.87980 2.63029 -4.05343
C 15.63021 3.39339 -3.67712
N 17.36148 2.86917 1.28042
C 18.21279 3.25597 0.22224
C 19.21836 4.17883 0.78757
C 18.89372 4.24744 2.15080
C 17.77790 3.40965 2.42014
C 20.28761 4.78512 0.06978
C 19.24781 4.82984 3.42521
O 20.05343 5.68219 3.79698
C 18.44755 4.06887 4.56840
C 17.84118 5.10234 5.47768
O 16.95951 5.87314 5.05919
O 18.24260 4.86823 6.74038
C 17.65839 5.86086 7.68123
H 14.13730 -1.36478 4.31088
H 14.11360 -0.95961 -1.92184
H 18.74317 3.27840 -1.71933
H 17.14734 1.91648 6.44329
H 14.96539 0.14537 6.24502
H 17.89769 -0.18796 5.76475
H 16.85974 -1.27386 4.81724
H 16.74354 -1.33057 6.55013
H 14.19163 2.38965 5.98978
H 15.29730 3.81166 5.96614
H 15.83147 2.31774 8.33054
H 14.13560 2.12921 8.05968
H 12.28970 -2.25633 3.82898
H 11.92003 -3.28824 2.48819
H 10.85589 -1.89189 2.77902
H 10.80719 -3.36475 0.55658
H 9.92603 -2.77868 -0.96880
H 9.99893 -1.81116 0.53187
H 15.27444 0.52215 -3.64129
H 18.15823 1.15600 -3.26878
H 16.26169 -1.35342 -4.43922
H 16.75812 -1.71914 -2.74930
H 17.81463 -0.87276 -3.76076
H 16.69537 2.20047 -5.04105
H 17.70474 3.32758 -4.15461
H 14.82878 2.77367 -4.09032
H 15.63575 4.38370 -4.12800
H 15.49830 3.42059 -2.58922
H 20.32899 5.81864 0.38698
H 20.14122 4.70394 -1.00528
H 21.12606 4.17547 0.41706
H 19.15652 3.42732 5.09314
H 18.49339 6.32475 8.21533
H 16.92184 5.30053 8.28727
H 17.17149 6.72985 7.25433

