%nproc=24
%mem=175gb
#p cam-b3lyp/Def2SVP td=(nstates=5)

TDDFT excited states in gaussian

0 1
Mg 8.94123 0.80133 0.68604
C 9.09807 -2.73170 0.07602
C 7.88514 0.05819 3.84310
C 8.36165 3.89156 1.11268
C 8.89371 1.25523 -2.76902
N 8.57798 -1.12548 1.70961
C 8.73071 -2.40366 1.39771
C 8.55352 -3.38218 2.58963
C 7.63406 -2.45659 3.52598
C 8.07975 -1.08398 3.02599
C 6.14777 -2.60696 3.24730
C 9.91624 -3.72926 3.28571
C 9.86035 -4.91216 4.25493
H 11.02174 -5.79267 4.34621
N 8.70408 1.84472 2.35747
C 8.28964 1.38017 3.55484
C 8.26222 2.54631 4.45124
C 8.53584 3.76567 3.64314
C 8.52362 3.20465 2.30703
C 8.07384 2.42727 5.93575
C 8.75748 5.20155 4.01100
O 8.74149 6.13249 3.13014
C 8.90076 5.49656 5.44415
N 8.45410 2.33880 -0.62592
C 8.30739 3.60137 -0.18738
C 8.23251 4.57398 -1.34013
C 8.60372 3.72484 -2.64349
C 8.74819 2.32720 -2.00229
C 6.88134 5.25816 -1.54656
C 9.76741 4.25835 -3.52319
C 11.07428 4.15085 -2.77090
N 9.17138 -0.46146 -1.05190
C 9.09048 -0.07117 -2.40660
C 9.19823 -1.29922 -3.22066
C 9.31213 -2.32939 -2.27500
C 9.25750 -1.78407 -0.96384
C 9.13560 -1.36376 -4.64124
C 9.45549 -3.75524 -2.08769
O 9.64090 -4.71521 -2.83456
C 9.19619 -4.09233 -0.55618
C 10.29702 -5.00446 -0.08850
O 11.47224 -4.60119 -0.03542
O 9.75401 -6.12463 0.42212
C 10.80594 -7.05612 0.90955
H 7.33294 -0.05922 4.77593
H 8.26928 4.97648 1.20151
H 8.98584 1.32251 -3.85514
H 8.03281 -4.30133 2.34922
H 7.88782 -2.58095 4.57551
H 5.96064 -3.22563 2.38222
H 5.77640 -1.60396 3.08262
H 5.63262 -2.97652 4.13859
H 10.17577 -2.92479 3.98587
H 10.68507 -3.89565 2.55644
H 8.94145 -5.49912 4.13637
H 9.80020 -4.52306 5.27424
H 7.73174 1.42410 6.21865
H 7.24043 3.08472 6.20605
H 8.95958 2.72993 6.49835
H 8.00956 5.16535 5.97189
H 9.14084 6.56004 5.50102
H 9.73726 4.90998 5.84016
H 8.95674 5.37058 -1.22166
H 7.75808 3.66324 -3.34416
H 6.94333 6.36257 -1.52377
H 6.19795 4.89993 -0.78815
H 6.36484 4.99208 -2.46722
H 9.62142 5.31905 -3.74171
H 9.86141 3.74371 -4.47361
H 11.07843 5.05389 -2.15317
H 11.91457 4.14164 -3.46218
H 11.06903 3.28853 -2.09413
H 9.91668 -2.04262 -4.95679
H 9.25769 -0.38001 -5.08969
H 8.12255 -1.75270 -4.77434
H 8.21563 -4.56475 -0.48618
H 10.64478 -8.01301 0.40352
H 10.72308 -7.04943 2.01266
H 11.83198 -6.84157 0.63448

