%nproc=24
%mem=175gb
#p cam-b3lyp/Def2SVP td=(nstates=5)

TDDFT excited states in gaussian

0 1
Mg 15.77189 1.42255 1.18924
C 18.54467 -0.85119 1.33374
C 18.02982 3.96069 1.49616
C 13.33021 3.42201 1.51758
C 13.71005 -1.25638 2.03651
N 17.97536 1.42755 1.38142
C 18.92677 0.50624 1.36220
C 20.37005 1.07344 1.29309
C 20.08896 2.52356 1.92318
C 18.61514 2.67051 1.55046
C 20.20382 2.55401 3.43818
C 20.90047 1.18012 -0.17976
C 22.40462 1.43230 -0.30491
H 23.12381 0.81494 -1.41581
N 15.68900 3.39407 0.97754
C 16.70576 4.27072 1.11528
C 16.12455 5.60131 0.87887
C 14.64913 5.45306 0.75289
C 14.49342 4.05628 1.10622
C 16.96085 6.83699 0.71419
C 13.55745 6.41318 0.38874
O 12.32137 6.12888 0.57348
C 13.98152 7.73207 -0.10339
N 13.83624 1.17831 1.90754
C 12.95917 2.19734 1.89150
C 11.56007 1.71769 2.19617
C 11.64081 0.12055 2.18201
C 13.15767 -0.05409 1.94957
C 10.97151 2.18547 3.52703
C 10.65777 -0.62549 1.23876
C 11.01093 -0.34183 -0.20353
N 16.01446 -0.71048 1.43296
C 15.02589 -1.64307 1.81648
C 15.69447 -2.95280 1.95804
C 17.04056 -2.68462 1.66714
C 17.20321 -1.30129 1.38530
C 15.06912 -4.16700 2.35901
C 18.36273 -3.25522 1.54480
O 18.82387 -4.39521 1.58352
C 19.41749 -2.07018 1.44714
C 20.35100 -2.37201 0.30697
O 19.93141 -2.39827 -0.86344
O 21.61764 -2.36465 0.76077
C 22.58147 -2.64815 -0.33581
H 18.62706 4.81521 1.81550
H 12.43467 4.04731 1.53949
H 13.11910 -2.15970 2.20220
H 21.09668 0.54100 1.89500
H 20.68442 3.28939 1.43299
H 20.33998 1.56584 3.85184
H 19.27940 2.98929 3.79459
H 20.99784 3.24205 3.74227
H 20.51684 2.10348 -0.63249
H 20.63177 0.30927 -0.74549
H 22.93228 1.25535 0.64019
H 22.56286 2.49475 -0.50536
H 17.99941 6.66380 1.02208
H 16.58474 7.57544 1.43050
H 16.89831 7.25692 -0.29199
H 14.59637 8.21818 0.65034
H 13.06272 8.24423 -0.39557
H 14.61763 7.58893 -0.98401
H 10.86513 2.04122 1.43100
H 11.42326 -0.30722 3.17172
H 10.01476 2.72946 3.41401
H 11.70484 2.80541 4.02547
H 10.79966 1.39756 4.25837
H 9.63906 -0.25877 1.38676
H 10.63958 -1.69886 1.39539
H 10.52189 0.61838 -0.39309
H 10.61787 -1.12024 -0.85439
H 12.09023 -0.19116 -0.32214
H 15.44618 -4.94211 1.70515
H 13.98501 -4.09264 2.30478
H 15.42461 -4.23812 3.39043
H 19.94133 -2.01831 2.40238
H 23.18395 -3.50475 -0.01811
H 23.11540 -1.69653 -0.51770
H 22.17969 -3.00901 -1.27539

