%nproc=24
%mem=175gb
#p cam-b3lyp/Def2SVP td=(nstates=5)

TDDFT excited states in gaussian

0 1
Mg 15.77424 1.41241 1.19728
C 15.89658 0.71666 -2.32124
C 15.15317 -1.90658 1.68021
C 15.21463 2.06326 4.25190
C 15.26601 4.76106 0.37631
N 15.57475 -0.27665 -0.21677
C 15.70215 -0.43190 -1.52597
C 15.69657 -1.90936 -2.00202
C 14.89616 -2.55620 -0.76921
C 15.25372 -1.54074 0.31414
C 13.38826 -2.54293 -0.95733
C 17.14362 -2.50392 -2.12271
C 17.23169 -3.83427 -2.87383
H 18.40665 -4.08915 -3.70266
N 15.74536 0.21650 2.78080
C 15.49848 -1.11021 2.79416
C 15.57378 -1.51926 4.20525
C 15.72225 -0.29671 5.04075
C 15.54166 0.73238 4.03654
C 15.58416 -2.95718 4.63618
C 15.97119 -0.08828 6.50389
O 15.82688 1.06009 7.05457
C 16.29803 -1.28657 7.29051
N 15.09804 3.11833 2.17450
C 14.99350 3.15175 3.51460
C 14.75446 4.55875 4.00817
C 14.96209 5.50222 2.73367
C 15.20842 4.42259 1.65705
C 13.37885 4.82467 4.61920
C 15.99254 6.65613 2.87265
C 17.38843 6.08929 2.99750
N 15.79034 2.58942 -0.61447
C 15.52651 3.97131 -0.73627
C 15.54251 4.29217 -2.17822
C 15.79374 3.06054 -2.80147
C 15.90498 2.04027 -1.81853
C 15.29420 5.57257 -2.74834
C 15.97956 2.38966 -4.06800
O 16.07780 2.75545 -5.23860
C 15.92876 0.82036 -3.82085
C 17.09369 0.19873 -4.54130
O 18.26017 0.44565 -4.18781
O 16.63768 -0.74758 -5.38209
C 17.75701 -1.40069 -6.11174
H 14.73027 -2.88091 1.92661
H 15.12028 2.36222 5.29841
H 15.21338 5.80009 0.04417
H 15.16107 -2.08656 -2.92702
H 15.28758 -3.53798 -0.51569
H 13.09710 -1.99197 -1.83926
H 12.98506 -2.07513 -0.06871
H 12.99997 -3.56545 -0.96223
H 17.48233 -2.82609 -1.12962
H 17.81186 -1.79267 -2.56790
H 16.31311 -4.05452 -3.43120
H 17.30111 -4.64230 -2.14153
H 15.29574 -3.62522 3.81525
H 14.78490 -3.07508 5.37588
H 16.53215 -3.25411 5.08984
H 15.48860 -2.00749 7.20357
H 16.52927 -0.92344 8.29378
H 17.18716 -1.75788 6.85700
H 15.47726 4.83014 4.76778
H 14.03243 6.01902 2.45352
H 13.42853 5.21137 5.65461
H 12.80614 3.90749 4.58289
H 12.74919 5.51259 4.05750
H 15.80488 7.22329 3.78767
H 15.96742 7.35942 2.04697
H 17.46183 5.84633 4.06177
H 18.13040 6.83148 2.71000
H 17.48389 5.15150 2.43796
H 16.03592 5.71784 -3.52246
H 15.34300 6.35839 -1.99742
H 14.27773 5.42542 -3.12305
H 14.97237 0.45959 -4.20129
H 17.54342 -1.30040 -7.18038
H 17.82008 -2.42744 -5.70485
H 18.73492 -0.93811 -6.04719

