%nproc=24
%mem=175gb
#p cam-b3lyp/Def2SVP td=(nstates=5)

TDDFT excited states in gaussian

0 1
Mg 7.87826 0.71715 0.60457
C 10.13571 1.02312 3.37754
C 5.47169 -0.16781 2.85399
C 5.99159 0.00358 -1.84466
C 10.67234 0.50268 -1.46733
N 7.91993 0.49292 2.80463
C 8.81743 0.69560 3.75739
C 8.25198 0.61711 5.20089
C 6.97181 -0.30707 4.90775
C 6.74440 0.04877 3.43999
C 7.26999 -1.79445 4.99796
C 7.83051 2.02328 5.75501
C 7.56064 2.06665 7.26068
H 7.92476 3.27304 7.99860
N 5.90743 0.49876 0.52262
C 5.08362 0.15830 1.53589
C 3.73208 0.11069 0.95689
C 3.84622 0.28952 -0.51610
C 5.28601 0.24921 -0.67574
C 2.49192 -0.00929 1.79418
C 2.82760 0.45497 -1.60294
O 3.14233 0.35605 -2.84149
C 1.43446 0.64331 -1.17262
N 8.26767 0.09999 -1.34217
C 7.26731 -0.09059 -2.22016
C 7.79832 -0.26172 -3.62342
C 9.35478 0.09623 -3.54041
C 9.47846 0.33645 -2.01976
C 7.62810 -1.65257 -4.23410
C 9.87694 1.19423 -4.50706
C 9.28887 2.53515 -4.13089
N 10.01406 0.93664 0.84588
C 11.00528 0.77989 -0.14760
C 12.31614 0.91417 0.52026
C 11.99445 1.11843 1.87055
C 10.58327 1.09177 2.03600
C 13.58690 0.79544 -0.10996
C 12.52808 1.33995 3.19527
O 13.65051 1.54126 3.65717
C 11.35235 1.16198 4.24996
C 11.40258 2.32523 5.20224
O 11.17415 3.48023 4.80174
O 11.49640 1.86021 6.46134
C 11.53822 2.97646 7.44320
H 4.70780 -0.67400 3.44487
H 5.38380 -0.13861 -2.74124
H 11.58878 0.54583 -2.05974
H 8.90364 0.13296 5.91832
H 6.11944 -0.00377 5.51012
H 8.32454 -1.98674 5.12864
H 6.92000 -2.22161 4.06732
H 6.66580 -2.25291 5.78606
H 6.83021 2.27172 5.37761
H 8.55779 2.76823 5.49664
H 7.93899 1.17380 7.77314
H 6.48034 2.03001 7.42079
H 2.72996 -0.28914 2.82783
H 1.92501 -0.86219 1.40555
H 1.86418 0.88314 1.74745
H 1.12426 -0.20754 -0.57071
H 0.86915 0.83259 -2.08721
H 1.38521 1.52367 -0.52211
H 7.31539 0.42648 -4.30625
H 9.98597 -0.77390 -3.77346
H 7.07038 -1.64446 -5.18959
H 7.13229 -2.28505 -3.50975
H 8.55514 -2.19333 -4.41680
H 9.54859 0.98688 -5.52850
H 10.95874 1.27376 -4.52642
H 8.30929 2.52042 -4.61801
H 9.90722 3.34521 -4.51233
H 9.11857 2.60095 -3.05000
H 14.20311 1.59529 0.27866
H 13.50012 0.84977 -1.19315
H 13.88021 -0.20179 0.22882
H 11.50948 0.20981 4.75815
H 12.44462 2.84187 8.04155
H 10.57100 2.93961 7.97880
H 11.68643 3.97820 7.05720

