%nproc=24
%mem=175gb
#p cam-b3lyp/Def2SVP td=(nstates=5)

TDDFT excited states in gaussian

0 1
Mg 0.00000 0.00000 0.00000
C -0.21700 -2.21800 2.80100
C -1.25500 2.44200 2.02600
C -0.24500 1.85000 -2.56400
C 0.14600 -2.82400 -2.03700
N -0.61700 -0.00900 2.12600
C -0.59400 -0.90800 3.10500
C -0.93600 -0.30900 4.50200
C -1.77300 0.96400 4.03200
C -1.15500 1.16800 2.66000
C -3.26300 0.68500 3.86300
C 0.34500 0.11000 5.29900
C 0.12400 0.39700 6.78700
H 1.16800 0.03300 7.73300
N -0.18500 1.96100 -0.15200
C -0.70300 2.80000 0.77700
C -0.62000 4.15600 0.19300
C -0.18700 4.01500 -1.22500
C -0.21400 2.58300 -1.38000
C -0.88700 5.40600 0.97400
C 0.18100 5.01300 -2.27700
O 0.30300 4.69000 -3.50800
C 0.31000 6.41400 -1.83700
N -0.26500 -0.41300 -2.02900
C -0.27900 0.56900 -2.93700
C -0.19600 0.02400 -4.33200
C 0.12400 -1.53300 -4.18000
C 0.08600 -1.63200 -2.63500
C -1.45100 0.20500 -5.19700
C 1.37300 -2.07000 -4.92300
C 2.62600 -1.49000 -4.30600
N 0.15000 -2.14400 0.30300
C 0.17300 -3.13600 -0.68800
C 0.17300 -4.43800 0.00400
C 0.13300 -4.11100 1.35800
C 0.08300 -2.69500 1.50200
C 0.14900 -5.71500 -0.62300
C 0.09600 -4.62900 2.71600
O 0.20800 -5.74700 3.22100
C -0.25500 -3.42800 3.70100
C 0.71700 -3.48200 4.84800
O 1.93100 -3.25500 4.66900
O 0.03800 -3.55600 6.00300
C 0.94300 -3.58300 7.18300
H -1.85900 3.22000 2.49700
H -0.21800 2.45300 -3.47400
H 0.27600 -3.74700 -2.60500
H -1.55400 -0.94900 5.13200
H -1.58500 1.83100 4.66500
H -3.48400 -0.37700 3.96900
H -3.51100 1.02700 2.85800
H -3.85200 1.30100 4.54300
H 0.66900 1.09600 4.96600
H 1.13000 -0.63900 5.18900
H -0.84400 0.02600 7.12500
H 0.06200 1.47700 6.92100
H -1.34400 5.18600 1.93800
H -1.65100 5.96300 0.43200
H 0.00700 6.02000 1.08400
H -0.63500 6.74400 -1.40500
H 0.66500 6.97000 -2.70400
H 1.04800 6.46600 -1.03600
H 0.60800 0.50100 -4.89100
H -0.69200 -2.15600 -4.54700
H -1.26700 0.74000 -6.12900
H -2.20400 0.71400 -4.59600
H -1.96700 -0.72000 -5.45300
H 1.35600 -1.75900 -5.96700
H 1.45200 -3.15700 -4.90200
H 2.71400 -0.52200 -4.79800
H 3.48700 -2.12100 -4.52900
H 2.49500 -1.30300 -3.24000
H 0.86700 -6.33300 -0.08400
H 0.40400 -5.64200 -1.68000
H -0.89100 -5.99900 -0.46300
H -1.28300 -3.58100 4.02800
H 0.69800 -4.47800 7.75500
H 0.83300 -2.61900 7.68000
H 2.00000 -3.75400 6.97600
Mg 13.13565 1.17575 1.00538
C 11.26996 3.25685 3.25644
C 15.21242 0.46896 3.61728
C 15.05278 -0.29995 -1.04751
C 11.63691 2.91022 -1.61971
N 13.13687 1.83772 3.11584
C 12.34304 2.58010 3.87284
C 12.67274 2.53417 5.38900
C 14.22028 2.11777 5.28605
C 14.19050 1.39730 3.93968
C 15.15743 3.30841 5.17000
C 11.83495 1.44759 6.15023
C 11.87754 1.55511 7.67613
H 10.67495 1.21536 8.43166
N 14.57519 -0.15356 1.32036
C 15.29892 -0.31757 2.44757
C 16.24217 -1.41044 2.16462
C 16.12809 -1.76745 0.72439
C 15.24319 -0.71719 0.26177
C 17.07691 -2.06095 3.22927
C 16.72769 -2.86412 -0.10265
O 16.68127 -2.84386 -1.38337
C 17.45205 -3.91466 0.62753
N 13.48262 1.42533 -1.02924
C 14.32854 0.61609 -1.69066
C 14.20880 0.80521 -3.18408
C 12.92923 1.74049 -3.39747
C 12.56753 2.01516 -1.92128
C 15.41914 1.43388 -3.87417
C 11.81852 1.20834 -4.34394
C 11.14923 0.00139 -3.72692
N 11.57880 2.66114 0.81076
C 11.12546 3.27073 -0.37961
C 10.13646 4.29794 0.00660
C 10.09973 4.22997 1.40750
C 11.01695 3.24489 1.86339
C 9.45071 5.16955 -0.88567
C 9.50137 4.77493 2.60486
O 8.59582 5.57489 2.83675
C 10.32478 4.25714 3.86196
C 9.34304 3.76144 4.88812
O 8.63480 2.76587 4.65607
O 9.55562 4.40710 6.04928
C 8.61323 3.94183 7.10154
H 16.05151 0.36137 4.30521
H 15.61048 -0.85528 -1.80518
H 11.05307 3.42587 -2.38516
H 12.57634 3.48259 5.90377
H 14.49794 1.42995 6.08051
H 14.61738 4.23665 5.05664
H 15.76895 3.11754 4.29784
H 15.84458 3.33160 6.02066
H 12.31331 0.46867 6.01744
H 10.81563 1.44930 5.81617
H 12.28207 2.51823 8.01035
H 12.58991 0.81881 8.05614
H 17.07011 -1.47754 4.15824
H 18.11752 -2.01906 2.88982
H 16.80281 -3.10410 3.40070
H 18.26158 -3.46543 1.19789
H 17.73070 -4.65467 -0.12521
H 16.76976 -4.36962 1.35424
H 14.03875 -0.14181 -3.68141
H 13.20228 2.70986 -3.83972
H 15.83380 0.80624 -4.68546
H 16.17349 1.63399 -3.12486
H 15.24735 2.42159 -4.29857
H 12.25432 0.87271 -5.28818
H 11.06331 1.94955 -4.58327
H 11.82220 -0.81832 -3.99577
H 10.15830 -0.14603 -4.15160
H 11.13829 0.07366 -2.63316
H 8.41886 5.19787 -0.56166
H 9.53549 4.83070 -1.91609
H 10.00086 6.09829 -0.71239
H 10.91713 5.09440 4.23303
H 8.09404 4.82783 7.47988
H 9.22863 3.37217 7.82302
H 7.77873 3.32474 6.78969

