%nproc=24
%mem=175gb
#p cam-b3lyp/Def2SVP td=(nstates=5)

TDDFT excited states in gaussian

0 1
Mg 15.77401 1.42066 1.19052
C 15.32303 4.86963 0.30717
C 15.20805 0.66218 -2.08652
C 15.71847 -1.64349 2.01230
C 15.17136 2.33335 4.49953
N 15.33436 2.68920 -0.56726
C 15.24833 3.99133 -0.79394
C 15.15273 4.37808 -2.29423
C 14.55486 2.99933 -2.86034
C 15.09118 2.04483 -1.79546
C 13.03651 2.94431 -2.83000
C 16.55604 4.69563 -2.92022
C 16.51002 5.37658 -4.28987
H 17.53416 6.36730 -4.60938
N 15.98891 -0.21066 0.08093
C 15.73517 -0.33653 -1.23855
C 16.03243 -1.73782 -1.57352
C 16.32447 -2.47005 -0.31128
C 15.99437 -1.45240 0.66622
C 16.09866 -2.24024 -2.98654
C 16.80717 -3.86078 -0.03009
O 16.76380 -4.36322 1.14826
C 17.24508 -4.64993 -1.19068
N 15.27935 0.44355 2.95770
C 15.39179 -0.89211 3.06397
C 15.24813 -1.33913 4.49922
C 15.25698 0.00228 5.36993
C 15.31717 1.04318 4.23050
C 13.99107 -2.14667 4.82180
C 16.30696 0.09379 6.51091
C 17.69949 0.16269 5.92651
N 15.50966 3.27384 2.26937
C 15.24243 3.42796 3.64738
C 15.02950 4.86939 3.89102
C 15.16597 5.45586 2.62377
C 15.42429 4.44857 1.65520
C 14.70463 5.46226 5.14365
C 15.13970 6.69683 1.88348
O 15.05196 7.88644 2.18489
C 15.11481 6.35849 0.33065
C 16.14307 7.22055 -0.34910
O 17.35342 7.07234 -0.10477
O 15.54921 7.92406 -1.33031
C 16.53070 8.78615 -2.04116
H 14.82127 0.29792 -3.03867
H 15.79624 -2.67351 2.36795
H 15.07562 2.70964 5.52027
H 14.47396 5.19432 -2.51056
H 14.97286 2.75788 -3.83417
H 12.61253 3.79738 -2.32141
H 12.78565 2.02985 -2.30859
H 12.64308 2.83061 -3.84420
H 17.04693 3.75325 -3.19533
H 17.15060 5.28053 -2.24567
H 15.51184 5.76685 -4.52284
H 16.68875 4.62134 -5.05908
H 15.67596 -1.51414 -3.69187
H 15.42758 -3.10361 -3.05070
H 17.10445 -2.55214 -3.27597
H 16.42560 -4.73349 -1.90055
H 17.63785 -5.58171 -0.77909
H 18.04863 -4.10649 -1.70018
H 16.08606 -1.95721 4.79747
H 14.29919 0.15824 5.88776
H 14.21002 -3.13786 5.26188
H 13.41155 -2.25310 3.91441
H 13.28571 -1.65580 5.49017
H 16.27398 -0.80675 7.12904
H 16.15599 0.94237 7.16978
H 17.94069 -0.88791 5.73903
H 18.39244 0.60568 6.63898
H 17.69516 0.67767 4.95882
H 15.31364 6.35186 5.23435
H 14.88068 4.77334 5.96716
H 13.63985 5.66089 4.99512
H 14.10644 6.56058 -0.03255
H 16.14912 9.81076 -1.99384
H 16.64885 8.33854 -3.04587
H 17.51049 8.90446 -1.59344

