%nproc=24
%mem=175gb
#p cam-b3lyp/Def2SVP td=(nstates=5)

TDDFT excited states in gaussian

0 1
Mg 0.00000 0.00000 0.00000
C -0.21700 -2.21800 2.80100
C -1.25500 2.44200 2.02600
C -0.24500 1.85000 -2.56400
C 0.14600 -2.82400 -2.03700
N -0.61700 -0.00900 2.12600
C -0.59400 -0.90800 3.10500
C -0.93600 -0.30900 4.50200
C -1.77300 0.96400 4.03200
C -1.15500 1.16800 2.66000
C -3.26300 0.68500 3.86300
C 0.34500 0.11000 5.29900
C 0.12400 0.39700 6.78700
H 1.16800 0.03300 7.73300
N -0.18500 1.96100 -0.15200
C -0.70300 2.80000 0.77700
C -0.62000 4.15600 0.19300
C -0.18700 4.01500 -1.22500
C -0.21400 2.58300 -1.38000
C -0.88700 5.40600 0.97400
C 0.18100 5.01300 -2.27700
O 0.30300 4.69000 -3.50800
C 0.31000 6.41400 -1.83700
N -0.26500 -0.41300 -2.02900
C -0.27900 0.56900 -2.93700
C -0.19600 0.02400 -4.33200
C 0.12400 -1.53300 -4.18000
C 0.08600 -1.63200 -2.63500
C -1.45100 0.20500 -5.19700
C 1.37300 -2.07000 -4.92300
C 2.62600 -1.49000 -4.30600
N 0.15000 -2.14400 0.30300
C 0.17300 -3.13600 -0.68800
C 0.17300 -4.43800 0.00400
C 0.13300 -4.11100 1.35800
C 0.08300 -2.69500 1.50200
C 0.14900 -5.71500 -0.62300
C 0.09600 -4.62900 2.71600
O 0.20800 -5.74700 3.22100
C -0.25500 -3.42800 3.70100
C 0.71700 -3.48200 4.84800
O 1.93100 -3.25500 4.66900
O 0.03800 -3.55600 6.00300
C 0.94300 -3.58300 7.18300
H -1.85900 3.22000 2.49700
H -0.21800 2.45300 -3.47400
H 0.27600 -3.74700 -2.60500
H -1.55400 -0.94900 5.13200
H -1.58500 1.83100 4.66500
H -3.48400 -0.37700 3.96900
H -3.51100 1.02700 2.85800
H -3.85200 1.30100 4.54300
H 0.66900 1.09600 4.96600
H 1.13000 -0.63900 5.18900
H -0.84400 0.02600 7.12500
H 0.06200 1.47700 6.92100
H -1.34400 5.18600 1.93800
H -1.65100 5.96300 0.43200
H 0.00700 6.02000 1.08400
H -0.63500 6.74400 -1.40500
H 0.66500 6.97000 -2.70400
H 1.04800 6.46600 -1.03600
H 0.60800 0.50100 -4.89100
H -0.69200 -2.15600 -4.54700
H -1.26700 0.74000 -6.12900
H -2.20400 0.71400 -4.59600
H -1.96700 -0.72000 -5.45300
H 1.35600 -1.75900 -5.96700
H 1.45200 -3.15700 -4.90200
H 2.71400 -0.52200 -4.79800
H 3.48700 -2.12100 -4.52900
H 2.49500 -1.30300 -3.24000
H 0.86700 -6.33300 -0.08400
H 0.40400 -5.64200 -1.68000
H -0.89100 -5.99900 -0.46300
H -1.28300 -3.58100 4.02800
H 0.69800 -4.47800 7.75500
H 0.83300 -2.61900 7.68000
H 2.00000 -3.75400 6.97600
Mg 31.53069 2.84332 2.40473
C 29.49557 0.33444 3.96772
C 28.90578 4.98992 2.77429
C 33.12417 4.93945 0.63429
C 33.50751 0.26117 1.15159
N 29.51434 2.57907 3.27466
C 28.87458 1.59872 3.89431
C 27.52542 2.01704 4.53801
C 27.20399 3.29181 3.61577
C 28.62911 3.67279 3.22007
C 26.43486 2.94219 2.35262
C 27.68291 2.42360 6.04529
C 26.36841 2.54542 6.81924
H 26.34816 2.14654 8.22386
N 31.29844 4.80530 2.21701
C 30.17032 5.51511 2.42868
C 30.51486 6.91498 2.13574
C 31.89301 6.95146 1.57531
C 32.15661 5.53376 1.43126
C 29.60474 8.06277 2.46391
C 32.81551 8.07639 1.21511
O 33.87546 7.88206 0.52116
C 32.39308 9.42549 1.61882
N 32.96248 2.62888 0.91264
C 33.53280 3.70457 0.34206
C 34.72260 3.30913 -0.49961
C 34.97999 1.76336 -0.18034
C 33.78730 1.49808 0.76439
C 34.56234 3.49715 -2.00803
C 36.40438 1.37153 0.29949
C 36.66820 1.95934 1.66707
N 31.64153 0.70160 2.66709
C 32.52834 -0.19144 2.02667
C 32.14448 -1.55700 2.43936
C 31.03776 -1.36360 3.27975
C 30.73954 0.02308 3.36743
C 32.76207 -2.76266 2.00224
C 30.04740 -2.01798 4.10418
O 29.85611 -3.17388 4.47971
C 28.92671 -0.95736 4.48566
C 28.66781 -1.06634 5.96337
O 29.55255 -0.76547 6.78393
O 27.35774 -1.29717 6.16534
C 27.04951 -1.40208 7.61648
H 28.07043 5.67669 2.63493
H 33.77347 5.62789 0.08845
H 34.13514 -0.59096 0.88207
H 26.73273 1.28397 4.44843
H 26.74200 4.08951 4.19162
H 26.33388 1.87465 2.22489
H 27.00154 3.36908 1.53551
H 25.46726 3.45215 2.34714
H 28.03093 3.46307 6.10129
H 28.34130 1.74766 6.55544
H 25.52842 2.09221 6.27890
H 26.10317 3.60319 6.88839
H 28.59477 7.71614 2.71529
H 29.47237 8.63955 1.54213
H 30.01479 8.71828 3.23516
H 31.42666 9.64966 1.17359
H 33.22289 10.08328 1.35312
H 32.24939 9.43671 2.70503
H 35.60100 3.87703 -0.21853
H 34.82423 1.13257 -1.06785
H 35.34067 4.14604 -2.45213
H 33.57670 3.90041 -2.19893
H 34.55208 2.57690 -2.58961
H 37.15864 1.79233 -0.36997
H 36.56823 0.29970 0.33605
H 36.98613 2.98117 1.43932
H 37.45418 1.40579 2.17683
H 35.74369 2.02452 2.25245
H 32.87369 -3.39005 2.87655
H 33.72101 -2.56831 1.52637
H 32.01391 -3.11731 1.28827
H 28.03951 -1.19186 3.89621
H 26.55523 -2.36648 7.76920
H 26.46920 -0.49368 7.86506
H 27.88517 -1.48185 8.30186

