%nproc=24
%mem=175gb
#p cam-b3lyp/Def2SVP td=(nstates=5)

TDDFT excited states in gaussian

0 1
Mg 10.51690 0.95160 0.80532
C 10.45306 -1.26506 3.62691
C 9.12114 3.32045 2.82399
C 10.14335 2.77739 -1.76264
C 10.82184 -1.86490 -1.22446
N 9.91223 0.91311 2.93256
C 9.99280 0.03532 3.92117
C 9.63133 0.60577 5.31884
C 8.70489 1.82960 4.84682
C 9.30019 2.06622 3.46035
C 7.24322 1.44861 4.68036
C 10.89328 1.10989 6.10329
C 10.65673 1.39256 7.58851
H 11.73267 1.10240 8.53225
N 10.20960 2.90633 0.65300
C 9.65220 3.71685 1.57692
C 9.63372 5.05936 0.97570
C 10.07450 4.94494 -0.44111
C 10.14110 3.50407 -0.58091
C 9.30134 6.29674 1.75791
C 10.37275 5.96346 -1.49934
O 10.51021 5.63479 -2.73057
C 10.40662 7.36806 -1.06639
N 10.27344 0.51404 -1.21251
C 10.18603 1.49574 -2.12714
C 10.29321 0.94587 -3.52947
C 10.71499 -0.58727 -3.35872
C 10.69066 -0.68629 -1.81762
C 9.02412 1.03294 -4.37695
C 11.99246 -1.05354 -4.10928
C 13.21248 -0.38805 -3.51426
N 10.80624 -1.16662 1.11749
C 10.88053 -2.17220 0.12887
C 10.96638 -3.46857 0.83206
C 10.91245 -3.12620 2.19161
C 10.78054 -1.71763 2.32588
C 11.02940 -4.74849 0.21242
C 10.92643 -3.63698 3.54350
O 11.10411 -4.74292 4.05247
C 10.50234 -2.46564 4.53067
C 11.48118 -2.44332 5.67256
O 12.67444 -2.15293 5.47657
O 10.80798 -2.55421 6.83224
C 11.73496 -2.52592 7.99488
H 8.47829 4.05876 3.30412
H 10.12810 3.36975 -2.68044
H 11.01810 -2.78167 -1.78455
H 9.06479 -0.06702 5.95142
H 8.85090 2.70202 5.47843
H 7.08852 0.38585 4.79324
H 6.96785 1.76726 3.68353
H 6.62130 2.03159 5.36570
H 11.14947 2.11989 5.75829
H 11.71041 0.42399 5.99166
H 9.70961 0.96811 7.94314
H 10.53391 2.47019 7.72140
H 8.85759 6.05070 2.73051
H 8.50048 6.81181 1.21645
H 10.15267 6.97349 1.85745
H 9.44769 7.63406 -0.62803
H 10.72266 7.93658 -1.94319
H 11.15500 7.47158 -0.27277
H 11.06341 1.46197 -4.08941
H 9.93492 -1.26822 -3.72972
H 9.16967 1.58338 -5.32559
H 8.24824 1.49744 -3.78299
H 8.57502 0.07558 -4.63572
H 11.95026 -0.74475 -5.15667
H 12.13278 -2.12924 -4.09608
H 13.23038 0.58563 -4.01298
H 14.10932 -0.96241 -3.73750
H 13.07800 -0.20656 -2.44159
H 11.78080 -5.31578 0.74542
H 11.26841 -4.66655 -0.84585
H 10.00559 -5.09518 0.37637
H 9.48566 -2.67262 4.86697
H 11.54676 -3.43416 8.57571
H 11.55210 -1.55851 8.49928
H 12.79548 -2.62012 7.79272

