%nproc=24
%mem=175gb
#p cam-b3lyp/Def2SVP td=(nstates=5)

TDDFT excited states in gaussian

0 1
Mg 0.00000 0.00000 0.00000
C -0.21700 -2.21800 2.80100
C -1.25500 2.44200 2.02600
C -0.24500 1.85000 -2.56400
C 0.14600 -2.82400 -2.03700
N -0.61700 -0.00900 2.12600
C -0.59400 -0.90800 3.10500
C -0.93600 -0.30900 4.50200
C -1.77300 0.96400 4.03200
C -1.15500 1.16800 2.66000
C -3.26300 0.68500 3.86300
C 0.34500 0.11000 5.29900
C 0.12400 0.39700 6.78700
H 1.16800 0.03300 7.73300
N -0.18500 1.96100 -0.15200
C -0.70300 2.80000 0.77700
C -0.62000 4.15600 0.19300
C -0.18700 4.01500 -1.22500
C -0.21400 2.58300 -1.38000
C -0.88700 5.40600 0.97400
C 0.18100 5.01300 -2.27700
O 0.30300 4.69000 -3.50800
C 0.31000 6.41400 -1.83700
N -0.26500 -0.41300 -2.02900
C -0.27900 0.56900 -2.93700
C -0.19600 0.02400 -4.33200
C 0.12400 -1.53300 -4.18000
C 0.08600 -1.63200 -2.63500
C -1.45100 0.20500 -5.19700
C 1.37300 -2.07000 -4.92300
C 2.62600 -1.49000 -4.30600
N 0.15000 -2.14400 0.30300
C 0.17300 -3.13600 -0.68800
C 0.17300 -4.43800 0.00400
C 0.13300 -4.11100 1.35800
C 0.08300 -2.69500 1.50200
C 0.14900 -5.71500 -0.62300
C 0.09600 -4.62900 2.71600
O 0.20800 -5.74700 3.22100
C -0.25500 -3.42800 3.70100
C 0.71700 -3.48200 4.84800
O 1.93100 -3.25500 4.66900
O 0.03800 -3.55600 6.00300
C 0.94300 -3.58300 7.18300
H -1.85900 3.22000 2.49700
H -0.21800 2.45300 -3.47400
H 0.27600 -3.74700 -2.60500
H -1.55400 -0.94900 5.13200
H -1.58500 1.83100 4.66500
H -3.48400 -0.37700 3.96900
H -3.51100 1.02700 2.85800
H -3.85200 1.30100 4.54300
H 0.66900 1.09600 4.96600
H 1.13000 -0.63900 5.18900
H -0.84400 0.02600 7.12500
H 0.06200 1.47700 6.92100
H -1.34400 5.18600 1.93800
H -1.65100 5.96300 0.43200
H 0.00700 6.02000 1.08400
H -0.63500 6.74400 -1.40500
H 0.66500 6.97000 -2.70400
H 1.04800 6.46600 -1.03600
H 0.60800 0.50100 -4.89100
H -0.69200 -2.15600 -4.54700
H -1.26700 0.74000 -6.12900
H -2.20400 0.71400 -4.59600
H -1.96700 -0.72000 -5.45300
H 1.35600 -1.75900 -5.96700
H 1.45200 -3.15700 -4.90200
H 2.71400 -0.52200 -4.79800
H 3.48700 -2.12100 -4.52900
H 2.49500 -1.30300 -3.24000
H 0.86700 -6.33300 -0.08400
H 0.40400 -5.64200 -1.68000
H -0.89100 -5.99900 -0.46300
H -1.28300 -3.58100 4.02800
H 0.69800 -4.47800 7.75500
H 0.83300 -2.61900 7.68000
H 2.00000 -3.75400 6.97600
Mg 13.13018 1.18135 1.00437
C 13.61304 3.80823 3.40133
C 13.32218 -1.02093 3.60201
C 13.15845 -1.17243 -1.12316
C 14.10861 3.44095 -1.46192
N 13.43009 1.47698 3.17575
C 13.53985 2.52387 3.97970
C 13.49228 2.18064 5.49280
C 13.97652 0.65186 5.40793
C 13.51967 0.32930 3.98669
C 15.48666 0.49450 5.47150
C 12.04387 2.29232 6.08579
C 11.97151 2.27348 7.61424
H 10.95676 3.09117 8.27314
N 12.74055 -0.75228 1.22315
C 12.85017 -1.48166 2.35330
C 12.46813 -2.85379 1.98523
C 12.28287 -2.90930 0.50966
C 12.75058 -1.58972 0.13544
C 12.23610 -3.93415 3.00130
C 11.78133 -3.97827 -0.41336
O 11.92910 -3.89467 -1.68379
C 11.19573 -5.16910 0.21948
N 13.77053 1.07355 -0.97064
C 13.62071 -0.05548 -1.68533
C 13.89705 0.18552 -3.15024
C 14.02867 1.77158 -3.30735
C 13.88807 2.18516 -1.82594
C 15.15036 -0.48684 -3.71018
C 13.10779 2.45376 -4.35582
C 11.66529 2.36257 -3.91279
N 13.57391 3.29410 0.91824
C 13.98921 4.03312 -0.21113
C 14.27937 5.40636 0.24980
C 14.03288 5.36465 1.63037
C 13.63781 4.05253 2.00689
C 14.75501 6.47363 -0.56311
C 14.02730 6.12957 2.85657
O 14.18981 7.31540 3.14143
C 13.87726 5.12432 4.07860
C 12.81602 5.66505 4.99725
O 11.63321 5.74144 4.62077
O 13.32957 5.79794 6.23377
C 12.31157 6.32084 7.18354
H 13.59364 -1.80648 4.30777
H 13.08041 -1.91996 -1.91600
H 14.32431 4.22939 -2.18615
H 14.17431 2.75298 6.11009
H 13.45041 0.03034 6.12786
H 15.99260 1.44813 5.44428
H 15.75681 -0.10184 4.60984
H 15.76747 -0.09717 6.34752
H 11.49255 1.37041 5.86022
H 11.54502 3.16491 5.71114
H 12.95356 2.43428 8.07540
H 11.68566 1.26902 7.93576
H 12.60921 -3.64256 3.99083
H 12.86455 -4.78396 2.71364
H 11.19477 -4.26116 3.03810
H 11.93290 -5.63055 0.87226
H 10.81410 -5.77871 -0.60187
H 10.36389 -4.85238 0.85849
H 13.07271 -0.16095 -3.76139
H 15.04043 2.06734 -3.62152
H 14.94226 -1.15031 -4.57075
H 15.62754 -1.03869 -2.91125
H 15.93931 0.19479 -4.02343
H 13.17202 1.93111 -5.31334
H 13.35795 3.49341 -4.53898
H 11.36730 1.36412 -4.24651
H 11.06740 3.13422 -4.39353
H 11.58740 2.38162 -2.81952
H 14.19199 7.35374 -0.28219
H 14.64076 6.24868 -1.62146
H 15.80502 6.49708 -0.25946
H 14.84890 5.05824 4.56964
H 12.73347 7.22149 7.64018
H 12.07263 5.47813 7.85919
H 11.38896 6.70742 6.76663

