%nproc=24
%mem=175gb
#p cam-b3lyp/Def2SVP td=(nstates=5)

TDDFT excited states in gaussian

0 1
Mg 7.87885 0.71394 0.60755
C 5.59574 -1.88152 1.57193
C 5.18098 2.78482 0.34767
C 9.79840 2.89080 -0.67466
C 10.18200 -1.78741 -0.15694
N 5.71848 0.37873 0.94324
C 4.97465 -0.63178 1.36742
C 3.49587 -0.26276 1.66172
C 3.37545 1.02515 0.71006
C 4.84204 1.45095 0.68828
C 2.95525 0.68655 -0.71055
C 3.26151 0.11163 3.16735
C 1.79285 0.18209 3.59141
H 1.43620 -0.25048 4.93980
N 7.64151 2.67342 0.40092
C 6.47532 3.34955 0.33682
C 6.83949 4.76417 0.16253
C 8.31193 4.84843 -0.03627
C 8.64567 3.44160 -0.13394
C 5.84219 5.88071 0.27290
C 9.26066 6.00433 -0.13636
O 10.46518 5.85314 -0.54759
C 8.71069 7.33245 0.17203
N 9.64233 0.57094 -0.48426
C 10.30387 1.67382 -0.87663
C 11.67687 1.32841 -1.40193
C 11.89332 -0.21760 -1.05465
C 10.51182 -0.53503 -0.44138
C 11.89092 1.54820 -2.89935
C 13.16492 -0.58499 -0.24181
C 13.06275 -0.02346 1.15806
N 7.98553 -1.42997 0.85319
C 9.03018 -2.28506 0.43892
C 8.59715 -3.66922 0.71997
C 7.31098 -3.52361 1.26133
C 6.95867 -2.14730 1.29527
C 9.34005 -4.84832 0.43024
C 6.16700 -4.22198 1.80196
O 5.92331 -5.39092 2.09851
C 4.95522 -3.19910 1.91005
C 4.34061 -3.34965 3.27464
O 4.98418 -3.04636 4.29466
O 3.02901 -3.61791 3.14001
C 2.37313 -3.76500 4.46666
H 4.38616 3.45361 0.01620
H 10.54192 3.60806 -1.02991
H 10.88231 -2.61692 -0.27592
H 2.77279 -1.01310 1.36520
H 2.76101 1.79711 1.16601
H 2.92142 -0.37984 -0.87735
H 3.69409 1.14679 -1.35346
H 2.00446 1.17214 -0.94830
H 3.55320 1.15785 3.32574
H 3.79253 -0.55957 3.81397
H 1.12755 -0.27900 2.85132
H 1.48698 1.23095 3.61009
H 4.81235 5.50304 0.25893
H 5.92573 6.47576 -0.64296
H 6.02775 6.52774 1.13290
H 7.87893 7.54292 -0.49605
H 9.56028 8.01693 0.13250
H 8.30129 7.31424 1.18824
H 12.44033 1.91124 -0.90140
H 11.98209 -0.83080 -1.96347
H 12.73527 2.22673 -3.12459
H 10.97195 1.93110 -3.32293
H 12.05325 0.64207 -3.48054
H 14.04885 -0.12965 -0.69512
H 13.34678 -1.65295 -0.18362
H 13.39636 1.01113 1.03390
H 13.71370 -0.56916 1.83815
H 12.02023 0.00462 1.49572
H 9.24974 -5.49335 1.29412
H 10.38085 -4.61878 0.21157
H 8.80383 -5.20449 -0.45343
H 4.24982 -3.44163 1.11433
H 1.88570 -4.74481 4.47521
H 1.72214 -2.87756 4.57811
H 3.01425 -3.84012 5.33716

