%nproc=24
%mem=175gb
#p cam-b3lyp/Def2SVP td=(nstates=5)

TDDFT excited states in gaussian

0 1
Mg 10.51901 0.94993 0.79276
C 13.14719 -1.22900 1.89910
C 12.38531 3.55226 1.96723
C 8.03735 2.84866 0.24180
C 8.41718 -1.82981 0.75999
N 12.49481 1.02494 1.78415
C 13.42846 0.13895 2.09669
C 14.76803 0.75863 2.57742
C 14.20785 2.17312 3.09151
C 12.96907 2.28228 2.20485
C 13.75628 2.15023 4.54234
C 15.79709 0.93950 1.40680
C 17.22847 1.24883 1.85089
H 18.33353 0.69956 1.07012
N 10.42807 2.92392 0.60935
C 11.28103 3.82986 1.13185
C 10.76614 5.14723 0.72742
C 9.44892 4.95221 0.06288
C 9.23944 3.53845 0.30269
C 11.54594 6.41683 0.91035
C 8.52408 5.88654 -0.65677
O 7.32131 5.55227 -0.94733
C 9.03747 7.23716 -0.92832
N 8.46847 0.61094 0.74086
C 7.61228 1.59846 0.42515
C 6.22308 1.05885 0.18156
C 6.37763 -0.53280 0.16264
C 7.88011 -0.64521 0.50222
C 5.16547 1.45500 1.21157
C 5.84597 -1.27663 -1.09304
C 6.69091 -0.92638 -2.29669
N 10.75403 -1.18098 1.06122
C 9.73825 -2.16151 1.03223
C 10.36819 -3.45140 1.38122
C 11.71292 -3.12536 1.61335
C 11.90320 -1.72750 1.44223
C 9.69648 -4.70109 1.49614
C 13.01253 -3.64420 1.97462
O 13.47969 -4.76796 2.15531
C 13.97297 -2.42004 2.29927
C 15.27316 -2.64559 1.57738
O 15.31484 -2.64225 0.33445
O 16.28253 -2.61098 2.46639
C 17.59401 -2.81881 1.79659
H 12.78290 4.41451 2.50326
H 7.16837 3.44089 -0.05422
H 7.84943 -2.75893 0.67589
H 15.24650 0.22960 3.39288
H 14.90546 2.97736 2.87267
H 13.77670 1.15249 4.95495
H 12.74638 2.53901 4.54226
H 14.34999 2.85369 5.13308
H 15.56419 1.86531 0.86517
H 15.79599 0.08179 0.76262
H 17.37943 1.05486 2.91979
H 17.39966 2.32300 1.74663
H 12.40549 6.26865 1.57564
H 10.89894 7.11401 1.45368
H 11.83813 6.87209 -0.03836
H 9.30890 7.71567 0.00967
H 8.26761 7.72747 -1.52730
H 9.95865 7.14984 -1.51519
H 5.84378 1.38653 -0.77857
H 5.83169 -1.00507 0.99255
H 4.29302 1.96899 0.76578
H 5.63455 2.08098 1.95900
H 4.77372 0.63444 1.81024
H 4.82829 -0.95172 -1.32308
H 5.82146 -2.35513 -0.97808
H 6.26165 0.02257 -2.63183
H 6.60128 -1.69292 -3.06378
H 7.72998 -0.73357 -2.00548
H 10.32312 -5.43720 1.01038
H 8.70599 -4.66280 1.04756
H 9.65088 -4.79868 2.58411
H 14.10601 -2.38601 3.38127
H 18.07673 -3.66515 2.29496
H 18.11251 -1.84284 1.84568
H 17.58298 -3.15772 0.76729

