%nproc=24
%mem=175gb
#p cam-b3lyp/Def2SVP td=(nstates=5)

TDDFT excited states in gaussian

0 1
Mg 13.14505 1.18505 1.00614
C 13.08103 -1.92275 2.79961
C 11.91476 2.66403 3.82281
C 12.76433 3.84718 -0.67778
C 13.26713 -0.67615 -1.93779
N 12.60861 0.37053 2.99134
C 12.68478 -0.81483 3.57739
C 12.39276 -0.79858 5.10187
C 11.50296 0.53691 5.16203
C 12.06227 1.25863 3.93771
C 10.02215 0.28429 4.93247
C 13.69927 -0.65742 5.95925
C 13.52291 -0.94398 7.45208
H 14.61595 -1.59392 8.16994
N 12.91417 3.06250 1.60654
C 12.42105 3.48351 2.79012
C 12.43869 4.95342 2.73334
C 12.82817 5.36505 1.35727
C 12.83050 4.07953 0.68830
C 12.18337 5.81724 3.93419
C 13.13387 6.69695 0.74181
O 13.21760 6.84857 -0.52817
C 13.23988 7.83667 1.66446
N 12.81837 1.53961 -1.01622
C 12.74207 2.79386 -1.49470
C 12.78085 2.80512 -3.00425
C 13.14411 1.30867 -3.43586
C 13.16569 0.64174 -2.04297
C 11.48964 3.23586 -3.69969
C 14.37617 1.12314 -4.36337
C 15.64135 1.48579 -3.61962
N 13.35641 -0.90324 0.49388
C 13.35691 -1.46823 -0.80029
C 13.41176 -2.93522 -0.63487
C 13.41618 -3.12428 0.75535
C 13.34712 -1.86492 1.41015
C 13.40161 -3.89214 -1.68859
C 13.45283 -4.10332 1.81782
O 13.60098 -5.32359 1.86990
C 13.10984 -3.37489 3.18828
C 14.12528 -3.80655 4.21056
O 15.32255 -3.49548 4.08263
O 13.48602 -4.32492 5.27500
C 14.45059 -4.75745 6.32110
H 11.31894 3.18613 4.57200
H 12.74387 4.73971 -1.30742
H 13.40700 -1.32210 -2.80719
H 11.81965 -1.64382 5.46365
H 11.70537 1.10602 6.06564
H 9.82731 -0.73922 4.64855
H 9.72802 0.95941 4.13953
H 9.44745 0.58516 5.81311
H 13.98574 0.40122 6.00371
H 14.48325 -1.27320 5.56325
H 12.57104 -1.44512 7.66596
H 13.44919 0.00879 7.98199
H 11.76158 5.23742 4.76444
H 11.38738 6.51818 3.66045
H 13.06477 6.38515 4.23961
H 12.30751 7.94476 2.21351
H 13.55059 8.68307 1.04888
H 14.01725 7.61647 2.40461
H 13.55320 3.47258 -3.36630
H 12.32490 0.83642 -3.99773
H 11.62702 4.09681 -4.38083
H 10.75333 3.46506 -2.94084
H 10.99314 2.45667 -4.27548
H 14.31285 1.80187 -5.21746
H 14.47218 0.11711 -4.75793
H 15.68337 2.57445 -3.72032
H 16.50593 1.01305 -4.08120
H 15.54936 1.25686 -2.55155
H 14.14577 -4.63704 -1.43987
H 13.60936 -3.42708 -2.65001
H 12.37018 -4.24791 -1.61903
H 12.09690 -3.66569 3.46928
H 14.24388 -5.81164 6.53004
H 14.32440 -4.04408 7.15712
H 15.49919 -4.79717 6.05034

