%nproc=24
%mem=175gb
#p cam-b3lyp/Def2SVP td=(nstates=5)

TDDFT excited states in gaussian

0 1
Mg 0.00000 0.00000 0.00000
C -0.21700 -2.21800 2.80100
C -1.25500 2.44200 2.02600
C -0.24500 1.85000 -2.56400
C 0.14600 -2.82400 -2.03700
N -0.61700 -0.00900 2.12600
C -0.59400 -0.90800 3.10500
C -0.93600 -0.30900 4.50200
C -1.77300 0.96400 4.03200
C -1.15500 1.16800 2.66000
C -3.26300 0.68500 3.86300
C 0.34500 0.11000 5.29900
C 0.12400 0.39700 6.78700
H 1.16800 0.03300 7.73300
N -0.18500 1.96100 -0.15200
C -0.70300 2.80000 0.77700
C -0.62000 4.15600 0.19300
C -0.18700 4.01500 -1.22500
C -0.21400 2.58300 -1.38000
C -0.88700 5.40600 0.97400
C 0.18100 5.01300 -2.27700
O 0.30300 4.69000 -3.50800
C 0.31000 6.41400 -1.83700
N -0.26500 -0.41300 -2.02900
C -0.27900 0.56900 -2.93700
C -0.19600 0.02400 -4.33200
C 0.12400 -1.53300 -4.18000
C 0.08600 -1.63200 -2.63500
C -1.45100 0.20500 -5.19700
C 1.37300 -2.07000 -4.92300
C 2.62600 -1.49000 -4.30600
N 0.15000 -2.14400 0.30300
C 0.17300 -3.13600 -0.68800
C 0.17300 -4.43800 0.00400
C 0.13300 -4.11100 1.35800
C 0.08300 -2.69500 1.50200
C 0.14900 -5.71500 -0.62300
C 0.09600 -4.62900 2.71600
O 0.20800 -5.74700 3.22100
C -0.25500 -3.42800 3.70100
C 0.71700 -3.48200 4.84800
O 1.93100 -3.25500 4.66900
O 0.03800 -3.55600 6.00300
C 0.94300 -3.58300 7.18300
H -1.85900 3.22000 2.49700
H -0.21800 2.45300 -3.47400
H 0.27600 -3.74700 -2.60500
H -1.55400 -0.94900 5.13200
H -1.58500 1.83100 4.66500
H -3.48400 -0.37700 3.96900
H -3.51100 1.02700 2.85800
H -3.85200 1.30100 4.54300
H 0.66900 1.09600 4.96600
H 1.13000 -0.63900 5.18900
H -0.84400 0.02600 7.12500
H 0.06200 1.47700 6.92100
H -1.34400 5.18600 1.93800
H -1.65100 5.96300 0.43200
H 0.00700 6.02000 1.08400
H -0.63500 6.74400 -1.40500
H 0.66500 6.97000 -2.70400
H 1.04800 6.46600 -1.03600
H 0.60800 0.50100 -4.89100
H -0.69200 -2.15600 -4.54700
H -1.26700 0.74000 -6.12900
H -2.20400 0.71400 -4.59600
H -1.96700 -0.72000 -5.45300
H 1.35600 -1.75900 -5.96700
H 1.45200 -3.15700 -4.90200
H 2.71400 -0.52200 -4.79800
H 3.48700 -2.12100 -4.52900
H 2.49500 -1.30300 -3.24000
H 0.86700 -6.33300 -0.08400
H 0.40400 -5.64200 -1.68000
H -0.89100 -5.99900 -0.46300
H -1.28300 -3.58100 4.02800
H 0.69800 -4.47800 7.75500
H 0.83300 -2.61900 7.68000
H 2.00000 -3.75400 6.97600
Mg 31.53999 2.84229 2.38862
C 34.25710 0.63582 3.18097
C 33.57324 5.42808 3.29093
C 29.03419 4.77168 2.13200
C 29.41399 0.09324 2.65044
N 33.62539 2.89783 3.12366
C 34.57904 2.00132 3.32653
C 35.97645 2.60592 3.62866
C 35.50401 4.03316 4.19317
C 34.16531 4.15202 3.46761
C 35.23779 4.03042 5.68931
C 36.85279 2.76084 2.33636
C 38.33255 3.05347 2.59407
H 39.32353 2.48089 1.68711
N 31.45292 4.81560 2.19614
C 32.37664 5.71388 2.59752
C 31.83258 7.03476 2.24620
C 30.43992 6.85270 1.75421
C 30.24346 5.44445 2.03407
C 32.64593 8.29454 2.31583
C 29.44455 7.79361 1.14581
O 28.21050 7.47417 1.01204
C 29.93767 9.13402 0.79708
N 29.49483 2.53269 2.59792
C 28.61895 3.52956 2.38106
C 27.20314 3.00796 2.31952
C 27.33298 1.41413 2.29906
C 28.86457 1.28306 2.44887
C 26.28848 3.42908 3.46950
C 26.63814 0.66639 1.12827
C 27.32994 0.99303 -0.17562
N 31.77856 0.71080 2.64917
C 30.75427 -0.25508 2.75862
C 31.40586 -1.55068 3.04021
C 32.77330 -1.24207 3.09833
C 32.95912 0.15121 2.88918
C 30.73738 -2.78934 3.25229
C 34.10098 -1.77635 3.29960
O 34.57218 -2.90506 3.43279
C 35.11070 -0.56331 3.48769
C 36.30693 -0.81450 2.61107
O 36.19236 -0.82339 1.37277
O 37.42024 -0.78625 3.36613
C 38.63445 -1.01939 2.53958
H 34.04634 6.28944 3.76329
H 28.14287 5.37369 1.94067
H 28.82791 -0.82828 2.64849
H 36.54641 2.07765 4.38354
H 36.17925 4.82508 3.87969
H 35.29660 3.03639 6.10717
H 34.24111 4.43384 5.81150
H 35.91021 4.73067 6.19313
H 36.56606 3.68483 1.81793
H 36.75949 1.89725 1.70696
H 38.61386 2.86733 3.63771
H 38.50354 4.12401 2.45725
H 33.58013 8.14010 2.86974
H 32.08153 9.00611 2.92819
H 32.82278 8.73660 1.33299
H 30.33097 9.61729 1.68827
H 29.10530 9.62985 0.29389
H 30.77669 9.02783 0.10038
H 26.71073 3.33212 1.41092
H 26.88929 0.95763 3.19605
H 25.37388 3.95150 3.13089
H 26.85590 4.05513 4.14525
H 25.96410 2.61994 4.12163
H 25.60404 1.00389 1.02400
H 26.61396 -0.41052 1.25736
H 26.87464 1.94494 -0.46483
H 27.13461 0.22073 -0.91686
H 28.39980 1.17342 -0.01910
H 31.28830 -3.53900 2.70003
H 29.69902 -2.74085 2.93100
H 30.82737 -2.87606 4.33841
H 35.37890 -0.52110 4.54403
H 39.16462 -1.86797 2.98288
H 39.16789 -0.05065 2.51244
H 38.48984 -1.36773 1.52361

