%nproc=24
%mem=175gb
#p cam-b3lyp/Def2SVP td=(nstates=5)

TDDFT excited states in gaussian

0 1
Mg 0.00000 0.00000 0.00000
C -0.21700 -2.21800 2.80100
C -1.25500 2.44200 2.02600
C -0.24500 1.85000 -2.56400
C 0.14600 -2.82400 -2.03700
N -0.61700 -0.00900 2.12600
C -0.59400 -0.90800 3.10500
C -0.93600 -0.30900 4.50200
C -1.77300 0.96400 4.03200
C -1.15500 1.16800 2.66000
C -3.26300 0.68500 3.86300
C 0.34500 0.11000 5.29900
C 0.12400 0.39700 6.78700
H 1.16800 0.03300 7.73300
N -0.18500 1.96100 -0.15200
C -0.70300 2.80000 0.77700
C -0.62000 4.15600 0.19300
C -0.18700 4.01500 -1.22500
C -0.21400 2.58300 -1.38000
C -0.88700 5.40600 0.97400
C 0.18100 5.01300 -2.27700
O 0.30300 4.69000 -3.50800
C 0.31000 6.41400 -1.83700
N -0.26500 -0.41300 -2.02900
C -0.27900 0.56900 -2.93700
C -0.19600 0.02400 -4.33200
C 0.12400 -1.53300 -4.18000
C 0.08600 -1.63200 -2.63500
C -1.45100 0.20500 -5.19700
C 1.37300 -2.07000 -4.92300
C 2.62600 -1.49000 -4.30600
N 0.15000 -2.14400 0.30300
C 0.17300 -3.13600 -0.68800
C 0.17300 -4.43800 0.00400
C 0.13300 -4.11100 1.35800
C 0.08300 -2.69500 1.50200
C 0.14900 -5.71500 -0.62300
C 0.09600 -4.62900 2.71600
O 0.20800 -5.74700 3.22100
C -0.25500 -3.42800 3.70100
C 0.71700 -3.48200 4.84800
O 1.93100 -3.25500 4.66900
O 0.03800 -3.55600 6.00300
C 0.94300 -3.58300 7.18300
H -1.85900 3.22000 2.49700
H -0.21800 2.45300 -3.47400
H 0.27600 -3.74700 -2.60500
H -1.55400 -0.94900 5.13200
H -1.58500 1.83100 4.66500
H -3.48400 -0.37700 3.96900
H -3.51100 1.02700 2.85800
H -3.85200 1.30100 4.54300
H 0.66900 1.09600 4.96600
H 1.13000 -0.63900 5.18900
H -0.84400 0.02600 7.12500
H 0.06200 1.47700 6.92100
H -1.34400 5.18600 1.93800
H -1.65100 5.96300 0.43200
H 0.00700 6.02000 1.08400
H -0.63500 6.74400 -1.40500
H 0.66500 6.97000 -2.70400
H 1.04800 6.46600 -1.03600
H 0.60800 0.50100 -4.89100
H -0.69200 -2.15600 -4.54700
H -1.26700 0.74000 -6.12900
H -2.20400 0.71400 -4.59600
H -1.96700 -0.72000 -5.45300
H 1.35600 -1.75900 -5.96700
H 1.45200 -3.15700 -4.90200
H 2.71400 -0.52200 -4.79800
H 3.48700 -2.12100 -4.52900
H 2.49500 -1.30300 -3.24000
H 0.86700 -6.33300 -0.08400
H 0.40400 -5.64200 -1.68000
H -0.89100 -5.99900 -0.46300
H -1.28300 -3.58100 4.02800
H 0.69800 -4.47800 7.75500
H 0.83300 -2.61900 7.68000
H 2.00000 -3.75400 6.97600
Mg 15.77291 1.41647 1.20539
C 13.45024 0.34825 3.72396
C 16.90892 3.72538 3.44437
C 17.51464 2.67643 -1.12835
C 13.72967 -0.14751 -1.14510
N 15.17724 1.87912 3.28467
C 14.32446 1.36617 4.15873
C 14.46838 1.92294 5.60055
C 15.15294 3.33193 5.24701
C 15.82097 2.95458 3.92639
C 14.14722 4.43812 4.97457
C 15.40645 1.03639 6.49278
C 15.34819 1.34405 7.99068
H 15.48619 0.23813 8.93427
N 17.34677 2.62277 1.28521
C 17.66739 3.47742 2.27922
C 18.90404 4.14845 1.84962
C 19.19705 3.74005 0.44888
C 17.99331 2.99729 0.13359
C 19.72138 5.01244 2.76554
C 20.36156 3.98902 -0.46114
O 20.29986 3.74047 -1.71703
C 21.54375 4.61930 0.14439
N 15.53663 1.46915 -0.85949
C 16.46701 2.03596 -1.64756
C 16.22054 1.71250 -3.10187
C 15.06555 0.60636 -3.10621
C 14.76905 0.54413 -1.59175
C 15.80151 2.88892 -3.98325
C 15.36480 -0.72067 -3.85595
C 16.44772 -1.48893 -3.13314
N 14.02765 0.14415 1.26295
C 13.31573 -0.37763 0.16068
C 12.13813 -1.08824 0.69988
C 12.23496 -0.90956 2.08812
C 13.38022 -0.12471 2.39123
C 11.13460 -1.73973 -0.07121
C 11.62290 -1.19746 3.36530
O 10.67973 -1.89329 3.73944
C 12.31270 -0.28925 4.47243
C 12.65077 -1.16543 5.64739
O 13.49665 -2.07051 5.53821
O 12.08428 -0.65430 6.75563
C 12.40017 -1.48257 7.94979
H 17.18328 4.63110 3.98593
H 18.14107 2.99414 -1.96508
H 13.09780 -0.74418 -1.80647
H 13.53184 2.08469 6.12064
H 15.89993 3.60507 5.98780
H 13.13449 4.06424 4.94778
H 14.42192 4.85560 4.01473
H 14.26996 5.24649 5.70108
H 16.45152 1.30141 6.28704
H 15.21310 -0.00612 6.33022
H 14.48238 1.96517 8.25053
H 16.21006 1.96303 8.25158
H 19.17068 5.26193 3.68090
H 19.85809 5.97455 2.26004
H 20.70251 4.58514 2.98343
H 21.26216 5.57830 0.57275
H 22.30185 4.63363 -0.64107
H 21.88767 3.99253 0.97474
H 17.10835 1.29536 -3.56110
H 14.14971 0.97546 -3.59082
H 16.47199 3.04608 -4.84918
H 15.75967 3.77816 -3.36840
H 14.78827 2.83272 -4.37744
H 15.74843 -0.51155 -4.85757
H 14.49410 -1.35756 -3.97106
H 17.36760 -1.02828 -3.50556
H 16.40375 -2.54560 -3.38919
H 16.40324 -1.30949 -2.05264
H 10.93001 -2.68310 0.41736
H 11.45615 -1.88563 -1.10034
H 10.32453 -1.00962 0.00614
H 11.60533 0.49720 4.73833
H 11.44556 -1.76433 8.40478
H 13.08967 -0.87220 8.56281
H 12.84911 -2.45441 7.78115

