%nproc=24
%mem=175gb
#p cam-b3lyp/Def2SVP td=(nstates=5)

TDDFT excited states in gaussian

0 1
Mg 0.00000 0.00000 0.00000
C -0.21700 -2.21800 2.80100
C -1.25500 2.44200 2.02600
C -0.24500 1.85000 -2.56400
C 0.14600 -2.82400 -2.03700
N -0.61700 -0.00900 2.12600
C -0.59400 -0.90800 3.10500
C -0.93600 -0.30900 4.50200
C -1.77300 0.96400 4.03200
C -1.15500 1.16800 2.66000
C -3.26300 0.68500 3.86300
C 0.34500 0.11000 5.29900
C 0.12400 0.39700 6.78700
H 1.16800 0.03300 7.73300
N -0.18500 1.96100 -0.15200
C -0.70300 2.80000 0.77700
C -0.62000 4.15600 0.19300
C -0.18700 4.01500 -1.22500
C -0.21400 2.58300 -1.38000
C -0.88700 5.40600 0.97400
C 0.18100 5.01300 -2.27700
O 0.30300 4.69000 -3.50800
C 0.31000 6.41400 -1.83700
N -0.26500 -0.41300 -2.02900
C -0.27900 0.56900 -2.93700
C -0.19600 0.02400 -4.33200
C 0.12400 -1.53300 -4.18000
C 0.08600 -1.63200 -2.63500
C -1.45100 0.20500 -5.19700
C 1.37300 -2.07000 -4.92300
C 2.62600 -1.49000 -4.30600
N 0.15000 -2.14400 0.30300
C 0.17300 -3.13600 -0.68800
C 0.17300 -4.43800 0.00400
C 0.13300 -4.11100 1.35800
C 0.08300 -2.69500 1.50200
C 0.14900 -5.71500 -0.62300
C 0.09600 -4.62900 2.71600
O 0.20800 -5.74700 3.22100
C -0.25500 -3.42800 3.70100
C 0.71700 -3.48200 4.84800
O 1.93100 -3.25500 4.66900
O 0.03800 -3.55600 6.00300
C 0.94300 -3.58300 7.18300
H -1.85900 3.22000 2.49700
H -0.21800 2.45300 -3.47400
H 0.27600 -3.74700 -2.60500
H -1.55400 -0.94900 5.13200
H -1.58500 1.83100 4.66500
H -3.48400 -0.37700 3.96900
H -3.51100 1.02700 2.85800
H -3.85200 1.30100 4.54300
H 0.66900 1.09600 4.96600
H 1.13000 -0.63900 5.18900
H -0.84400 0.02600 7.12500
H 0.06200 1.47700 6.92100
H -1.34400 5.18600 1.93800
H -1.65100 5.96300 0.43200
H 0.00700 6.02000 1.08400
H -0.63500 6.74400 -1.40500
H 0.66500 6.97000 -2.70400
H 1.04800 6.46600 -1.03600
H 0.60800 0.50100 -4.89100
H -0.69200 -2.15600 -4.54700
H -1.26700 0.74000 -6.12900
H -2.20400 0.71400 -4.59600
H -1.96700 -0.72000 -5.45300
H 1.35600 -1.75900 -5.96700
H 1.45200 -3.15700 -4.90200
H 2.71400 -0.52200 -4.79800
H 3.48700 -2.12100 -4.52900
H 2.49500 -1.30300 -3.24000
H 0.86700 -6.33300 -0.08400
H 0.40400 -5.64200 -1.68000
H -0.89100 -5.99900 -0.46300
H -1.28300 -3.58100 4.02800
H 0.69800 -4.47800 7.75500
H 0.83300 -2.61900 7.68000
H 2.00000 -3.75400 6.97600
Mg 7.87394 0.71303 0.60291
C 5.74121 -2.06417 -0.18302
C 5.78310 2.65515 -1.26555
C 9.96672 3.07920 0.90111
C 10.35042 -1.59886 1.42018
N 6.03257 0.24128 -0.52806
C 5.28265 -0.83623 -0.70392
C 3.92783 -0.56827 -1.41259
C 4.32438 0.78147 -2.18707
C 5.42589 1.28314 -1.25558
C 4.93377 0.53253 -3.55675
C 2.75886 -0.32421 -0.39477
C 1.35611 -0.36304 -1.00512
H 0.26516 -0.91660 -0.20771
N 7.64789 2.66767 0.34437
C 6.73304 3.28536 -0.43202
C 6.99684 4.72621 -0.29586
C 8.24571 4.90182 0.49421
C 8.68952 3.52598 0.59502
C 6.06157 5.77764 -0.81853
C 8.93421 6.10963 1.05401
O 10.13328 6.05338 1.50334
C 8.19770 7.37959 0.97498
N 9.93329 0.74660 0.88628
C 10.59159 1.90935 1.03648
C 12.00974 1.67729 1.50059
C 12.09355 0.12235 1.86488
C 10.67225 -0.31280 1.44541
C 13.10483 2.02314 0.49185
C 12.58649 -0.24045 3.29249
C 11.56941 0.20496 4.31841
N 7.99141 -1.43504 0.80308
C 9.13256 -2.20018 1.12927
C 8.74543 -3.62254 1.03201
C 7.40159 -3.58615 0.63042
C 6.98669 -2.23672 0.46793
C 9.60487 -4.73556 1.25259
C 6.24274 -4.38264 0.29673
O 5.97187 -5.58209 0.33805
C 5.15263 -3.43540 -0.36720
C 3.82821 -3.72280 0.28535
O 3.64770 -3.46643 1.48880
O 2.93087 -4.04747 -0.66321
C 1.59854 -4.33062 -0.06611
H 5.32367 3.30548 -2.01045
H 10.69884 3.85938 1.12199
H 11.03757 -2.37924 1.75411
H 3.62803 -1.32987 -2.12242
H 3.49441 1.48292 -2.20858
H 5.10891 -0.51805 -3.73489
H 5.86783 1.07885 -3.56685
H 4.31149 0.98512 -4.33410
H 2.78877 0.72031 -0.05889
H 2.81600 -1.01503 0.42385
H 1.35637 -0.79932 -2.01140
H 1.01580 0.66396 -1.15835
H 5.31369 5.34930 -1.49721
H 6.65384 6.44533 -1.45355
H 5.60036 6.36489 -0.02160
H 7.96450 7.59774 -0.06448
H 8.81378 8.10820 1.50551
H 7.24009 7.26156 1.49428
H 12.22600 2.25842 2.38863
H 12.79329 -0.41323 1.20658
H 13.83529 2.75994 0.87608
H 12.63410 2.38953 -0.41077
H 13.67926 1.17437 0.12467
H 13.51202 0.29383 3.52073
H 12.78454 -1.29884 3.42509
H 11.81187 1.26196 4.46351
H 11.68614 -0.35726 5.24271
H 10.55237 0.15274 3.91275
H 9.04485 -5.44934 1.84200
H 10.52205 -4.43613 1.75547
H 9.78597 -5.04957 0.22115
H 5.13790 -3.65184 -1.43609
H 1.30649 -5.33210 -0.39692
H 0.94885 -3.48943 -0.37278
H 1.54485 -4.43957 1.01078

