%nproc=24
%mem=175gb
#p cam-b3lyp/Def2SVP td=(nstates=5)

TDDFT excited states in gaussian

0 1
Mg 8.94185 0.79782 0.68213
C 9.15036 -1.51592 -2.05322
C 8.14651 -1.85640 2.67139
C 8.31046 2.85903 3.01027
C 8.62277 3.34325 -1.67683
N 8.70993 -1.35877 0.24903
C 8.87422 -2.13111 -0.81438
C 8.81410 -3.65381 -0.51886
C 7.94216 -3.60299 0.82873
C 8.31088 -2.19968 1.30565
C 6.44390 -3.64395 0.57801
C 10.23429 -4.26921 -0.26125
C 10.28406 -5.79864 -0.27226
H 11.47299 -6.45248 -0.81209
N 8.80189 0.51827 2.64194
C 8.49146 -0.62966 3.28004
C 8.49903 -0.30688 4.71528
C 8.67737 1.16303 4.86456
C 8.58053 1.58220 3.48073
C 8.42589 -1.35667 5.78580
C 8.88608 2.04677 6.05689
O 8.77828 3.32148 5.97734
C 9.12822 1.37061 7.33972
N 8.31526 2.78017 0.67873
C 8.16691 3.46030 1.82909
C 7.97886 4.93606 1.56992
C 8.27466 5.13968 0.01151
C 8.50550 3.66811 -0.39664
C 6.59757 5.49931 1.90332
C 9.35386 6.19016 -0.36861
C 10.71594 5.71909 0.08769
N 9.07592 0.95077 -1.46884
C 8.88285 2.10754 -2.25541
C 8.96324 1.69035 -3.67030
C 9.17626 0.30497 -3.60843
C 9.20503 -0.11500 -2.25111
C 8.79606 2.54107 -4.79921
C 9.37273 -0.89932 -4.38289
O 9.52814 -1.14804 -5.57776
C 9.23847 -2.15139 -3.41301
C 10.39613 -3.07340 -3.68182
O 11.56039 -2.71611 -3.42995
O 9.92420 -4.29636 -3.98514
C 11.03515 -5.24920 -4.24923
H 7.66930 -2.57884 3.33414
H 8.19498 3.62919 3.77643
H 8.63128 4.09294 -2.47091
H 8.30251 -4.24262 -1.27076
H 8.27727 -4.34925 1.54439
H 6.20963 -3.58112 -0.47427
H 6.03356 -2.79459 1.10834
H 6.00749 -4.53099 1.04604
H 10.52321 -4.07932 0.78049
H 10.95058 -3.87933 -0.95806
H 9.37548 -6.23753 -0.70216
H 10.28976 -6.15311 0.76134
H 8.13391 -2.33086 5.37457
H 7.59720 -1.08166 6.44724
H 9.34260 -1.42116 6.37584
H 8.28863 0.71847 7.56834
H 9.34232 2.16769 8.05435
H 10.00799 0.72593 7.23482
H 8.68757 5.52250 2.14169
H 7.38088 5.47999 -0.53180
H 6.63045 6.33718 2.62510
H 5.98317 4.69394 2.28335
H 6.02104 5.84549 1.04718
H 9.16255 7.13373 0.14834
H 9.39055 6.40670 -1.43104
H 10.74138 6.01946 1.13945
H 11.50196 6.21042 -0.48223
H 10.78537 4.62556 0.05540
H 9.56978 2.27481 -5.50700
H 8.85685 3.59053 -4.51867
H 7.78705 2.25698 -5.10979
H 8.27939 -2.62666 -3.62246
H 10.86308 -5.67293 -5.24347
H 11.03510 -5.95225 -3.39514
H 12.03132 -4.83820 -4.36399

