%nproc=24
%mem=175gb
#p cam-b3lyp/Def2SVP td=(nstates=5)

TDDFT excited states in gaussian

0 1
Mg 0.00000 0.00000 0.00000
C -0.21700 -2.21800 2.80100
C -1.25500 2.44200 2.02600
C -0.24500 1.85000 -2.56400
C 0.14600 -2.82400 -2.03700
N -0.61700 -0.00900 2.12600
C -0.59400 -0.90800 3.10500
C -0.93600 -0.30900 4.50200
C -1.77300 0.96400 4.03200
C -1.15500 1.16800 2.66000
C -3.26300 0.68500 3.86300
C 0.34500 0.11000 5.29900
C 0.12400 0.39700 6.78700
H 1.16800 0.03300 7.73300
N -0.18500 1.96100 -0.15200
C -0.70300 2.80000 0.77700
C -0.62000 4.15600 0.19300
C -0.18700 4.01500 -1.22500
C -0.21400 2.58300 -1.38000
C -0.88700 5.40600 0.97400
C 0.18100 5.01300 -2.27700
O 0.30300 4.69000 -3.50800
C 0.31000 6.41400 -1.83700
N -0.26500 -0.41300 -2.02900
C -0.27900 0.56900 -2.93700
C -0.19600 0.02400 -4.33200
C 0.12400 -1.53300 -4.18000
C 0.08600 -1.63200 -2.63500
C -1.45100 0.20500 -5.19700
C 1.37300 -2.07000 -4.92300
C 2.62600 -1.49000 -4.30600
N 0.15000 -2.14400 0.30300
C 0.17300 -3.13600 -0.68800
C 0.17300 -4.43800 0.00400
C 0.13300 -4.11100 1.35800
C 0.08300 -2.69500 1.50200
C 0.14900 -5.71500 -0.62300
C 0.09600 -4.62900 2.71600
O 0.20800 -5.74700 3.22100
C -0.25500 -3.42800 3.70100
C 0.71700 -3.48200 4.84800
O 1.93100 -3.25500 4.66900
O 0.03800 -3.55600 6.00300
C 0.94300 -3.58300 7.18300
H -1.85900 3.22000 2.49700
H -0.21800 2.45300 -3.47400
H 0.27600 -3.74700 -2.60500
H -1.55400 -0.94900 5.13200
H -1.58500 1.83100 4.66500
H -3.48400 -0.37700 3.96900
H -3.51100 1.02700 2.85800
H -3.85200 1.30100 4.54300
H 0.66900 1.09600 4.96600
H 1.13000 -0.63900 5.18900
H -0.84400 0.02600 7.12500
H 0.06200 1.47700 6.92100
H -1.34400 5.18600 1.93800
H -1.65100 5.96300 0.43200
H 0.00700 6.02000 1.08400
H -0.63500 6.74400 -1.40500
H 0.66500 6.97000 -2.70400
H 1.04800 6.46600 -1.03600
H 0.60800 0.50100 -4.89100
H -0.69200 -2.15600 -4.54700
H -1.26700 0.74000 -6.12900
H -2.20400 0.71400 -4.59600
H -1.96700 -0.72000 -5.45300
H 1.35600 -1.75900 -5.96700
H 1.45200 -3.15700 -4.90200
H 2.71400 -0.52200 -4.79800
H 3.48700 -2.12100 -4.52900
H 2.49500 -1.30300 -3.24000
H 0.86700 -6.33300 -0.08400
H 0.40400 -5.64200 -1.68000
H -0.89100 -5.99900 -0.46300
H -1.28300 -3.58100 4.02800
H 0.69800 -4.47800 7.75500
H 0.83300 -2.61900 7.68000
H 2.00000 -3.75400 6.97600
Mg 7.87713 0.70435 0.60572
C 6.96522 3.32166 2.88545
C 9.32362 -0.89143 3.25067
C 9.08328 -1.39308 -1.44694
C 7.39086 2.98248 -1.98645
N 8.05534 1.24552 2.74293
C 7.61639 2.23520 3.50595
C 7.81967 2.01221 5.02861
C 9.04598 0.97774 4.95855
C 8.77921 0.37540 3.58061
C 10.40514 1.65678 4.92799
C 6.56261 1.36748 5.71136
C 6.57125 1.40554 7.24114
H 5.30259 1.59176 7.93993
N 8.59672 -1.12033 0.90788
C 9.12507 -1.60788 2.05000
C 9.52642 -2.99088 1.74935
C 9.34278 -3.22619 0.29140
C 9.01296 -1.88663 -0.15233
C 9.95118 -3.96386 2.81062
C 9.45895 -4.45126 -0.56411
O 9.48907 -4.37877 -1.84344
C 9.63034 -5.72970 0.14137
N 8.39764 0.83633 -1.40276
C 8.85046 -0.23859 -2.07165
C 8.89671 0.02354 -3.55810
C 8.14899 1.42104 -3.77138
C 7.86590 1.78416 -2.29713
C 10.29206 0.09339 -4.17818
C 6.96580 1.43980 -4.77756
C 5.81693 0.61819 -4.23863
N 7.11198 2.71696 0.42691
C 7.02067 3.49346 -0.74901
C 6.54493 4.83387 -0.34978
C 6.41342 4.75054 1.04459
C 6.80052 3.45627 1.48563
C 6.34032 5.93845 -1.22394
C 6.04529 5.46650 2.24483
O 5.55590 6.57003 2.48246
C 6.50675 4.61315 3.50389
C 5.35790 4.55684 4.47317
O 4.30583 3.96570 4.17267
O 5.76719 5.01848 5.66889
C 4.66555 4.97217 6.66692
H 10.00197 -1.36546 3.96061
H 9.38848 -2.11284 -2.21001
H 7.12061 3.71840 -2.74675
H 8.11059 2.89677 5.58241
H 8.96487 0.21618 5.72979
H 10.31770 2.72942 4.83893
H 10.91970 1.24650 4.06895
H 10.99378 1.36147 5.80128
H 6.58493 0.28199 5.55029
H 5.65881 1.81329 5.34390
H 7.33002 2.09431 7.63205
H 6.88285 0.42564 7.61089
H 10.14726 -3.45858 3.76437
H 10.92614 -4.36129 2.50833
H 9.25118 -4.79424 2.92528
H 10.52472 -5.68469 0.75823
H 9.60456 -6.49735 -0.63446
H 8.78424 -5.86903 0.82352
H 8.36475 -0.74643 -4.10331
H 8.83008 2.19245 -4.15981
H 10.43989 -0.62921 -5.00285
H 11.02173 -0.06799 -3.39582
H 10.57810 1.07086 -4.56280
H 7.26357 0.97567 -5.72099
H 6.61061 2.43865 -5.00804
H 6.08958 -0.40287 -4.52182
H 4.87982 0.91952 -4.70238
H 5.78362 0.65884 -3.14369
H 5.40393 6.39601 -0.93357
H 6.32380 5.62362 -2.26528
H 7.22403 6.53828 -0.99042
H 7.37986 5.10697 3.93214
H 4.55463 5.98453 7.06756
H 4.94351 4.17514 7.38193
H 3.66437 4.77917 6.29971

