%nproc=24
%mem=175gb
#p cam-b3lyp/Def2SVP td=(nstates=5)

TDDFT excited states in gaussian

0 1
Mg 0.00000 0.00000 0.00000
C -0.21700 -2.21800 2.80100
C -1.25500 2.44200 2.02600
C -0.24500 1.85000 -2.56400
C 0.14600 -2.82400 -2.03700
N -0.61700 -0.00900 2.12600
C -0.59400 -0.90800 3.10500
C -0.93600 -0.30900 4.50200
C -1.77300 0.96400 4.03200
C -1.15500 1.16800 2.66000
C -3.26300 0.68500 3.86300
C 0.34500 0.11000 5.29900
C 0.12400 0.39700 6.78700
H 1.16800 0.03300 7.73300
N -0.18500 1.96100 -0.15200
C -0.70300 2.80000 0.77700
C -0.62000 4.15600 0.19300
C -0.18700 4.01500 -1.22500
C -0.21400 2.58300 -1.38000
C -0.88700 5.40600 0.97400
C 0.18100 5.01300 -2.27700
O 0.30300 4.69000 -3.50800
C 0.31000 6.41400 -1.83700
N -0.26500 -0.41300 -2.02900
C -0.27900 0.56900 -2.93700
C -0.19600 0.02400 -4.33200
C 0.12400 -1.53300 -4.18000
C 0.08600 -1.63200 -2.63500
C -1.45100 0.20500 -5.19700
C 1.37300 -2.07000 -4.92300
C 2.62600 -1.49000 -4.30600
N 0.15000 -2.14400 0.30300
C 0.17300 -3.13600 -0.68800
C 0.17300 -4.43800 0.00400
C 0.13300 -4.11100 1.35800
C 0.08300 -2.69500 1.50200
C 0.14900 -5.71500 -0.62300
C 0.09600 -4.62900 2.71600
O 0.20800 -5.74700 3.22100
C -0.25500 -3.42800 3.70100
C 0.71700 -3.48200 4.84800
O 1.93100 -3.25500 4.66900
O 0.03800 -3.55600 6.00300
C 0.94300 -3.58300 7.18300
H -1.85900 3.22000 2.49700
H -0.21800 2.45300 -3.47400
H 0.27600 -3.74700 -2.60500
H -1.55400 -0.94900 5.13200
H -1.58500 1.83100 4.66500
H -3.48400 -0.37700 3.96900
H -3.51100 1.02700 2.85800
H -3.85200 1.30100 4.54300
H 0.66900 1.09600 4.96600
H 1.13000 -0.63900 5.18900
H -0.84400 0.02600 7.12500
H 0.06200 1.47700 6.92100
H -1.34400 5.18600 1.93800
H -1.65100 5.96300 0.43200
H 0.00700 6.02000 1.08400
H -0.63500 6.74400 -1.40500
H 0.66500 6.97000 -2.70400
H 1.04800 6.46600 -1.03600
H 0.60800 0.50100 -4.89100
H -0.69200 -2.15600 -4.54700
H -1.26700 0.74000 -6.12900
H -2.20400 0.71400 -4.59600
H -1.96700 -0.72000 -5.45300
H 1.35600 -1.75900 -5.96700
H 1.45200 -3.15700 -4.90200
H 2.71400 -0.52200 -4.79800
H 3.48700 -2.12100 -4.52900
H 2.49500 -1.30300 -3.24000
H 0.86700 -6.33300 -0.08400
H 0.40400 -5.64200 -1.68000
H -0.89100 -5.99900 -0.46300
H -1.28300 -3.58100 4.02800
H 0.69800 -4.47800 7.75500
H 0.83300 -2.61900 7.68000
H 2.00000 -3.75400 6.97600
Mg 8.93848 0.80923 0.68706
C 8.09362 -1.48452 3.31460
C 7.14536 3.16977 2.37440
C 9.28451 2.72182 -1.82087
C 9.66681 -1.95663 -1.30425
N 7.81160 0.73193 2.58874
C 7.61210 -0.17666 3.53161
C 6.92386 0.36624 4.81269
C 6.18444 1.63766 4.16800
C 7.11961 1.89167 2.98749
C 4.80267 1.31758 3.62247
C 7.95895 0.79894 5.90966
C 7.36071 1.04710 7.29613
H 8.15210 0.68887 8.46995
N 8.73771 2.77783 0.53586
C 7.98767 3.58177 1.31841
C 8.16230 4.94093 0.78330
C 8.94549 4.85107 -0.47894
C 9.00304 3.41338 -0.65166
C 7.67839 6.16679 1.50201
C 9.53302 5.88784 -1.38784
O 9.96949 5.59012 -2.55561
C 9.49693 7.27695 -0.90765
N 9.20368 0.44011 -1.34168
C 9.38079 1.45061 -2.21084
C 9.82502 0.93807 -3.56005
C 10.14416 -0.61433 -3.34611
C 9.72562 -0.75713 -1.86630
C 8.81646 1.09800 -4.69743
C 11.55627 -1.10686 -3.76569
C 12.60378 -0.50588 -2.85634
N 9.07640 -1.32666 0.98205
C 9.37017 -2.30516 0.00721
C 9.23608 -3.62376 0.65969
C 8.84811 -3.31927 1.97318
C 8.72789 -1.91120 2.12280
C 9.41700 -4.88659 0.02831
C 8.50261 -3.86930 3.26423
O 8.51232 -4.99554 3.75943
C 7.87597 -2.71188 4.15534
C 8.53227 -2.76004 5.50791
O 9.74414 -2.50971 5.63168
O 7.58319 -2.87890 6.45422
C 8.18426 -2.91975 7.81395
H 6.42352 3.91774 2.70360
H 9.52072 3.34076 -2.68954
H 9.97206 -2.86352 -1.83059
H 6.19546 -0.30261 5.25524
H 6.19055 2.48516 4.84850
H 4.59313 0.25864 3.65222
H 4.79950 1.67534 2.60117
H 4.04428 1.90364 4.14945
H 8.32410 1.80806 5.67923
H 8.75704 0.08596 5.98281
H 6.34247 0.64887 7.38299
H 7.23989 2.12430 7.43420
H 6.99473 5.90964 2.32047
H 7.05717 6.72750 0.79522
H 8.49591 6.80747 1.83944
H 8.46628 7.56639 -0.71675
H 10.04225 7.85829 -1.65367
H 10.02147 7.32878 0.05296
H 10.72719 1.44054 -3.88673
H 9.46447 -1.25401 -3.92806
H 9.21472 1.66984 -5.55676
H 7.92900 1.57422 -4.30224
H 8.42001 0.16635 -5.09751
H 11.79106 -0.76636 -4.77717
H 11.65689 -2.18705 -3.75804
H 12.77663 0.48050 -3.29709
H 13.51060 -1.10722 -2.86668
H 12.20620 -0.35067 -1.84664
H 9.99102 -5.49733 0.71242
H 9.91970 -4.78306 -0.93103
H 8.37542 -5.19868 -0.08563
H 6.80155 -2.88970 4.21507
H 7.82783 -3.83667 8.29341
H 7.90764 -1.96115 8.29178
H 9.25807 -3.04833 7.88359

