%nproc=24
%mem=175gb
#p cam-b3lyp/Def2SVP td=(nstates=5)

TDDFT excited states in gaussian

0 1
Mg 0.00000 0.00000 0.00000
C -0.21700 -2.21800 2.80100
C -1.25500 2.44200 2.02600
C -0.24500 1.85000 -2.56400
C 0.14600 -2.82400 -2.03700
N -0.61700 -0.00900 2.12600
C -0.59400 -0.90800 3.10500
C -0.93600 -0.30900 4.50200
C -1.77300 0.96400 4.03200
C -1.15500 1.16800 2.66000
C -3.26300 0.68500 3.86300
C 0.34500 0.11000 5.29900
C 0.12400 0.39700 6.78700
H 1.16800 0.03300 7.73300
N -0.18500 1.96100 -0.15200
C -0.70300 2.80000 0.77700
C -0.62000 4.15600 0.19300
C -0.18700 4.01500 -1.22500
C -0.21400 2.58300 -1.38000
C -0.88700 5.40600 0.97400
C 0.18100 5.01300 -2.27700
O 0.30300 4.69000 -3.50800
C 0.31000 6.41400 -1.83700
N -0.26500 -0.41300 -2.02900
C -0.27900 0.56900 -2.93700
C -0.19600 0.02400 -4.33200
C 0.12400 -1.53300 -4.18000
C 0.08600 -1.63200 -2.63500
C -1.45100 0.20500 -5.19700
C 1.37300 -2.07000 -4.92300
C 2.62600 -1.49000 -4.30600
N 0.15000 -2.14400 0.30300
C 0.17300 -3.13600 -0.68800
C 0.17300 -4.43800 0.00400
C 0.13300 -4.11100 1.35800
C 0.08300 -2.69500 1.50200
C 0.14900 -5.71500 -0.62300
C 0.09600 -4.62900 2.71600
O 0.20800 -5.74700 3.22100
C -0.25500 -3.42800 3.70100
C 0.71700 -3.48200 4.84800
O 1.93100 -3.25500 4.66900
O 0.03800 -3.55600 6.00300
C 0.94300 -3.58300 7.18300
H -1.85900 3.22000 2.49700
H -0.21800 2.45300 -3.47400
H 0.27600 -3.74700 -2.60500
H -1.55400 -0.94900 5.13200
H -1.58500 1.83100 4.66500
H -3.48400 -0.37700 3.96900
H -3.51100 1.02700 2.85800
H -3.85200 1.30100 4.54300
H 0.66900 1.09600 4.96600
H 1.13000 -0.63900 5.18900
H -0.84400 0.02600 7.12500
H 0.06200 1.47700 6.92100
H -1.34400 5.18600 1.93800
H -1.65100 5.96300 0.43200
H 0.00700 6.02000 1.08400
H -0.63500 6.74400 -1.40500
H 0.66500 6.97000 -2.70400
H 1.04800 6.46600 -1.03600
H 0.60800 0.50100 -4.89100
H -0.69200 -2.15600 -4.54700
H -1.26700 0.74000 -6.12900
H -2.20400 0.71400 -4.59600
H -1.96700 -0.72000 -5.45300
H 1.35600 -1.75900 -5.96700
H 1.45200 -3.15700 -4.90200
H 2.71400 -0.52200 -4.79800
H 3.48700 -2.12100 -4.52900
H 2.49500 -1.30300 -3.24000
H 0.86700 -6.33300 -0.08400
H 0.40400 -5.64200 -1.68000
H -0.89100 -5.99900 -0.46300
H -1.28300 -3.58100 4.02800
H 0.69800 -4.47800 7.75500
H 0.83300 -2.61900 7.68000
H 2.00000 -3.75400 6.97600
Mg 15.75708 1.42273 1.20174
C 13.62434 -1.35447 0.41581
C 13.66624 3.36485 -0.66672
C 17.84986 3.78890 1.49994
C 18.23355 -0.88916 2.01902
N 13.91571 0.95098 0.07078
C 13.16579 -0.12653 -0.10508
C 11.81097 0.14143 -0.81376
C 12.20752 1.49117 -1.58824
C 13.30903 1.99284 -0.65675
C 12.81691 1.24223 -2.95792
C 10.64200 0.38549 0.20407
C 9.23925 0.34666 -0.40629
H 8.14830 -0.20690 0.39113
N 15.53103 3.37737 0.94320
C 14.61618 3.99506 0.16681
C 14.87998 5.43591 0.30297
C 16.12885 5.61152 1.09304
C 16.57266 4.23568 1.19385
C 13.94470 6.48734 -0.21969
C 16.81735 6.81933 1.65284
O 18.01641 6.76308 2.10217
C 16.08084 8.08929 1.57382
N 17.81643 1.45630 1.48511
C 18.47473 2.61905 1.63531
C 19.89288 2.38699 2.09942
C 19.97669 0.83205 2.46371
C 18.55539 0.39690 2.04424
C 20.98797 2.73284 1.09068
C 20.46963 0.46925 3.89132
C 19.45255 0.91466 4.91725
N 15.87455 -0.72534 1.40191
C 17.01570 -1.49048 1.72810
C 16.62856 -2.91284 1.63084
C 15.28473 -2.87645 1.22925
C 14.86983 -1.52702 1.06677
C 17.48800 -4.02586 1.85142
C 14.12588 -3.67294 0.89556
O 13.85501 -4.87239 0.93689
C 13.03577 -2.72570 0.23163
C 11.71135 -3.01310 0.88418
O 11.53084 -2.75673 2.08763
O 10.81401 -3.33777 -0.06437
C 9.48168 -3.62092 0.53272
H 13.20681 4.01518 -1.41162
H 18.58198 4.56908 1.72083
H 18.92071 -1.66954 2.35294
H 11.51117 -0.62017 -1.52359
H 11.37755 2.19262 -1.60974
H 12.99205 0.19165 -3.13605
H 13.75097 1.78855 -2.96802
H 12.19463 1.69482 -3.73527
H 10.67191 1.43001 0.53994
H 10.69914 -0.30533 1.02268
H 9.23951 -0.08962 -1.41257
H 8.89893 1.37366 -0.55952
H 13.19683 6.05900 -0.89838
H 14.53698 7.15503 -0.85472
H 13.48350 7.07459 0.57723
H 15.84764 8.30744 0.53435
H 16.69692 8.81790 2.10434
H 15.12323 7.97126 2.09311
H 20.10914 2.96812 2.98746
H 20.67643 0.29647 1.80541
H 21.71843 3.46964 1.47491
H 20.51724 3.09923 0.18807
H 21.56239 1.88407 0.72350
H 21.39516 1.00353 4.11956
H 20.66768 -0.58914 4.02392
H 19.69501 1.97166 5.06235
H 19.56928 0.35244 5.84154
H 18.43551 0.86244 4.51158
H 16.92799 -4.73964 2.44083
H 18.40519 -3.72643 2.35430
H 17.66911 -4.33986 0.81998
H 13.02104 -2.94214 -0.83725
H 9.18963 -4.62240 0.20191
H 8.83199 -2.77973 0.22605
H 9.42799 -3.72987 1.60961

