%nproc=24
%mem=175gb
#p cam-b3lyp/Def2SVP td=(nstates=5)

TDDFT excited states in gaussian

0 1
Mg 31.52309 2.84204 2.39884
C 29.46378 0.05464 1.46679
C 29.53996 4.77986 0.41222
C 33.57610 5.22077 2.83958
C 33.95976 0.54272 3.35878
N 29.75981 2.36383 1.15207
C 29.03011 1.28220 0.92414
C 27.72061 1.54472 0.13304
C 28.15540 2.90125 -0.60835
C 29.19262 3.40542 0.39298
C 28.85137 2.66379 -1.93823
C 26.48831 1.77538 1.07657
C 25.12698 1.73028 0.37908
H 23.99207 1.16505 1.10362
N 31.29981 4.79646 2.13620
C 30.43116 5.41206 1.30688
C 30.67561 6.85391 1.46642
C 31.87110 7.03379 2.33428
C 32.31750 5.66048 2.45603
C 29.76754 7.90173 0.89118
C 32.51445 8.24324 2.94216
O 33.68330 8.19275 3.46569
C 31.77533 9.50857 2.82324
N 33.56029 2.88811 2.81123
C 34.19956 4.05450 3.00822
C 35.58737 3.82961 3.55940
C 35.65921 2.27334 3.92060
C 34.27020 1.83079 3.41049
C 36.74116 4.18829 2.62319
C 36.06408 1.90628 5.37456
C 34.98141 2.33927 6.33671
N 31.64306 0.69379 2.59544
C 32.76690 -0.06531 2.98895
C 32.39678 -1.48972 2.86057
C 31.08060 -1.46033 2.37550
C 30.66712 -0.11291 2.19388
C 33.24857 -2.59804 3.12927
C 29.95070 -2.26290 1.96573
O 29.68633 -3.46436 1.98406
C 28.89773 -1.31956 1.23926
C 27.53701 -1.61944 1.80586
O 27.27944 -1.37074 2.99683
O 26.70337 -1.94513 0.80120
C 25.33821 -2.24053 1.31198
H 29.12361 5.43102 -0.35689
H 34.28732 6.00472 3.10987
H 34.63012 -0.23474 3.73140
H 27.47142 0.78491 -0.59795
H 27.32344 3.59715 -0.67853
H 29.04485 1.61539 -2.11016
H 29.78031 3.21650 -1.88692
H 28.27595 3.11629 -2.75092
H 26.48962 2.81827 1.41879
H 26.49883 1.08060 1.89376
H 25.19355 1.29939 -0.62733
H 24.78965 2.75574 0.20981
H 29.06684 7.47196 0.16474
H 30.39376 8.57683 0.29792
H 29.25302 8.48157 1.66041
H 31.60634 9.73068 1.77226
H 32.35166 10.23851 3.39501
H 30.78786 9.38125 3.28073
H 35.74328 4.40744 4.46211
H 36.40271 1.74607 3.30496
H 37.44078 4.92797 3.05618
H 36.32547 4.55628 1.69458
H 37.34355 3.34542 2.28867
H 36.96961 2.44562 5.66315
H 36.26094 0.84857 5.51415
H 35.20674 3.39711 6.50195
H 35.04386 1.77293 7.26375
H 33.99226 2.28230 5.86768
H 32.65774 -3.31875 3.67880
H 34.13020 -2.29507 3.69026
H 33.49634 -2.90528 2.10972
H 28.95171 -1.53037 0.17051
H 25.07466 -3.24219 0.95856
H 24.70309 -1.40215 0.96922
H 25.21776 -2.35560 2.38282

