%nproc=24
%mem=175gb
#p cam-b3lyp/Def2SVP td=(nstates=5)

TDDFT excited states in gaussian

0 1
Mg 0.00000 0.00000 0.00000
C -0.21700 -2.21800 2.80100
C -1.25500 2.44200 2.02600
C -0.24500 1.85000 -2.56400
C 0.14600 -2.82400 -2.03700
N -0.61700 -0.00900 2.12600
C -0.59400 -0.90800 3.10500
C -0.93600 -0.30900 4.50200
C -1.77300 0.96400 4.03200
C -1.15500 1.16800 2.66000
C -3.26300 0.68500 3.86300
C 0.34500 0.11000 5.29900
C 0.12400 0.39700 6.78700
H 1.16800 0.03300 7.73300
N -0.18500 1.96100 -0.15200
C -0.70300 2.80000 0.77700
C -0.62000 4.15600 0.19300
C -0.18700 4.01500 -1.22500
C -0.21400 2.58300 -1.38000
C -0.88700 5.40600 0.97400
C 0.18100 5.01300 -2.27700
O 0.30300 4.69000 -3.50800
C 0.31000 6.41400 -1.83700
N -0.26500 -0.41300 -2.02900
C -0.27900 0.56900 -2.93700
C -0.19600 0.02400 -4.33200
C 0.12400 -1.53300 -4.18000
C 0.08600 -1.63200 -2.63500
C -1.45100 0.20500 -5.19700
C 1.37300 -2.07000 -4.92300
C 2.62600 -1.49000 -4.30600
N 0.15000 -2.14400 0.30300
C 0.17300 -3.13600 -0.68800
C 0.17300 -4.43800 0.00400
C 0.13300 -4.11100 1.35800
C 0.08300 -2.69500 1.50200
C 0.14900 -5.71500 -0.62300
C 0.09600 -4.62900 2.71600
O 0.20800 -5.74700 3.22100
C -0.25500 -3.42800 3.70100
C 0.71700 -3.48200 4.84800
O 1.93100 -3.25500 4.66900
O 0.03800 -3.55600 6.00300
C 0.94300 -3.58300 7.18300
H -1.85900 3.22000 2.49700
H -0.21800 2.45300 -3.47400
H 0.27600 -3.74700 -2.60500
H -1.55400 -0.94900 5.13200
H -1.58500 1.83100 4.66500
H -3.48400 -0.37700 3.96900
H -3.51100 1.02700 2.85800
H -3.85200 1.30100 4.54300
H 0.66900 1.09600 4.96600
H 1.13000 -0.63900 5.18900
H -0.84400 0.02600 7.12500
H 0.06200 1.47700 6.92100
H -1.34400 5.18600 1.93800
H -1.65100 5.96300 0.43200
H 0.00700 6.02000 1.08400
H -0.63500 6.74400 -1.40500
H 0.66500 6.97000 -2.70400
H 1.04800 6.46600 -1.03600
H 0.60800 0.50100 -4.89100
H -0.69200 -2.15600 -4.54700
H -1.26700 0.74000 -6.12900
H -2.20400 0.71400 -4.59600
H -1.96700 -0.72000 -5.45300
H 1.35600 -1.75900 -5.96700
H 1.45200 -3.15700 -4.90200
H 2.71400 -0.52200 -4.79800
H 3.48700 -2.12100 -4.52900
H 2.49500 -1.30300 -3.24000
H 0.86700 -6.33300 -0.08400
H 0.40400 -5.64200 -1.68000
H -0.89100 -5.99900 -0.46300
H -1.28300 -3.58100 4.02800
H 0.69800 -4.47800 7.75500
H 0.83300 -2.61900 7.68000
H 2.00000 -3.75400 6.97600
Mg 15.77410 1.41969 1.19051
C 15.36804 4.73401 -0.12458
C 15.23553 0.26008 -1.97174
C 15.67831 -1.51616 2.39012
C 15.14543 2.74661 4.35117
N 15.36636 2.46089 -0.71786
C 15.29613 3.72488 -1.10740
C 15.22058 3.92069 -2.64542
C 14.61470 2.48702 -3.04087
C 15.12975 1.66934 -1.85817
C 13.09562 2.44967 -3.02196
C 16.63371 4.14457 -3.28959
C 16.60936 4.64822 -4.73441
H 17.64698 5.58180 -5.16365
N 15.98412 -0.34007 0.29737
C 15.74325 -0.62866 -0.99877
C 16.02969 -2.06352 -1.15142
C 16.30065 -2.63373 0.19623
C 15.97057 -1.49833 1.03409
C 16.10590 -2.74025 -2.48920
C 16.76601 -3.98226 0.65569
O 16.70486 -4.33210 1.88724
C 17.20821 -4.91496 -0.39121
N 15.25053 0.67701 3.06045
C 15.34811 -0.63561 3.33507
C 15.18449 -0.89727 4.81329
C 15.19778 0.54286 5.50857
C 15.28086 1.43162 4.24817
C 13.91582 -1.64669 5.21979
C 16.23636 0.76788 6.64144
C 17.63570 0.75042 6.06966
N 15.51724 3.39610 2.02469
C 15.23685 3.72468 3.36912
C 15.03614 5.18713 3.42713
C 15.19219 5.60833 2.09795
C 15.45052 4.48496 1.26680
C 14.70396 5.93569 4.59137
C 15.18659 6.74650 1.20732
O 15.10784 7.96531 1.35577
C 15.17487 6.21578 -0.29088
C 16.21916 6.97638 -1.06126
O 17.42523 6.84938 -0.78582
O 15.64309 7.55610 -2.13011
C 16.64094 8.31323 -2.93191
H 14.85526 -0.21761 -2.87512
H 15.74168 -2.49391 2.87329
H 15.04262 3.24913 5.31532
H 14.55258 4.70920 -2.97069
H 15.04060 2.12131 -3.97158
H 12.67500 3.36365 -2.62970
H 12.82981 1.61030 -2.39279
H 12.71193 2.21279 -4.01845
H 17.11782 3.17076 -3.43821
H 17.22698 4.80439 -2.68685
H 15.61779 5.01489 -5.02645
H 16.78857 3.80068 -5.40042
H 15.69825 -2.10493 -3.28518
H 15.42672 -3.59887 -2.45235
H 17.11148 -3.09495 -2.72513
H 16.39556 -5.07989 -1.09468
H 17.58696 -5.79101 0.13886
H 18.02271 -4.44704 -0.95536
H 16.01279 -1.48032 5.19682
H 14.23614 0.77117 5.99124
H 14.11986 -2.57656 5.78352
H 13.34500 -1.86128 4.32613
H 13.20842 -1.06944 5.81272
H 16.18752 -0.04743 7.36741
H 16.08705 1.69389 7.18661
H 17.86810 -0.31751 6.01858
H 18.32549 1.27337 6.72902
H 17.64703 1.13962 5.04494
H 15.32106 6.82421 4.57680
H 14.86409 5.35429 5.49696
H 13.64293 6.12346 4.40637
H 14.17257 6.37948 -0.68858
H 16.26941 9.33899 -3.01828
H 16.76525 7.74178 -3.87092
H 17.61704 8.47825 -2.49096

