%nproc=24
%mem=175gb
#p cam-b3lyp/Def2SVP td=(nstates=5)

TDDFT excited states in gaussian

0 1
Mg 0.00000 0.00000 0.00000
C -0.21700 -2.21800 2.80100
C -1.25500 2.44200 2.02600
C -0.24500 1.85000 -2.56400
C 0.14600 -2.82400 -2.03700
N -0.61700 -0.00900 2.12600
C -0.59400 -0.90800 3.10500
C -0.93600 -0.30900 4.50200
C -1.77300 0.96400 4.03200
C -1.15500 1.16800 2.66000
C -3.26300 0.68500 3.86300
C 0.34500 0.11000 5.29900
C 0.12400 0.39700 6.78700
H 1.16800 0.03300 7.73300
N -0.18500 1.96100 -0.15200
C -0.70300 2.80000 0.77700
C -0.62000 4.15600 0.19300
C -0.18700 4.01500 -1.22500
C -0.21400 2.58300 -1.38000
C -0.88700 5.40600 0.97400
C 0.18100 5.01300 -2.27700
O 0.30300 4.69000 -3.50800
C 0.31000 6.41400 -1.83700
N -0.26500 -0.41300 -2.02900
C -0.27900 0.56900 -2.93700
C -0.19600 0.02400 -4.33200
C 0.12400 -1.53300 -4.18000
C 0.08600 -1.63200 -2.63500
C -1.45100 0.20500 -5.19700
C 1.37300 -2.07000 -4.92300
C 2.62600 -1.49000 -4.30600
N 0.15000 -2.14400 0.30300
C 0.17300 -3.13600 -0.68800
C 0.17300 -4.43800 0.00400
C 0.13300 -4.11100 1.35800
C 0.08300 -2.69500 1.50200
C 0.14900 -5.71500 -0.62300
C 0.09600 -4.62900 2.71600
O 0.20800 -5.74700 3.22100
C -0.25500 -3.42800 3.70100
C 0.71700 -3.48200 4.84800
O 1.93100 -3.25500 4.66900
O 0.03800 -3.55600 6.00300
C 0.94300 -3.58300 7.18300
H -1.85900 3.22000 2.49700
H -0.21800 2.45300 -3.47400
H 0.27600 -3.74700 -2.60500
H -1.55400 -0.94900 5.13200
H -1.58500 1.83100 4.66500
H -3.48400 -0.37700 3.96900
H -3.51100 1.02700 2.85800
H -3.85200 1.30100 4.54300
H 0.66900 1.09600 4.96600
H 1.13000 -0.63900 5.18900
H -0.84400 0.02600 7.12500
H 0.06200 1.47700 6.92100
H -1.34400 5.18600 1.93800
H -1.65100 5.96300 0.43200
H 0.00700 6.02000 1.08400
H -0.63500 6.74400 -1.40500
H 0.66500 6.97000 -2.70400
H 1.04800 6.46600 -1.03600
H 0.60800 0.50100 -4.89100
H -0.69200 -2.15600 -4.54700
H -1.26700 0.74000 -6.12900
H -2.20400 0.71400 -4.59600
H -1.96700 -0.72000 -5.45300
H 1.35600 -1.75900 -5.96700
H 1.45200 -3.15700 -4.90200
H 2.71400 -0.52200 -4.79800
H 3.48700 -2.12100 -4.52900
H 2.49500 -1.30300 -3.24000
H 0.86700 -6.33300 -0.08400
H 0.40400 -5.64200 -1.68000
H -0.89100 -5.99900 -0.46300
H -1.28300 -3.58100 4.02800
H 0.69800 -4.47800 7.75500
H 0.83300 -2.61900 7.68000
H 2.00000 -3.75400 6.97600
Mg 8.93764 0.80716 0.66905
C 11.60125 -1.54637 0.17398
C 11.26360 3.28089 0.34473
C 6.70550 2.88456 1.54622
C 7.08549 -1.79376 2.06563
N 11.11894 0.74897 0.30742
C 12.01222 -0.20079 0.07429
C 13.40652 0.32140 -0.36480
C 13.32760 1.78973 0.28069
C 11.81154 1.97475 0.28254
C 13.81693 1.84217 1.71845
C 13.55585 0.38725 -1.92537
C 14.98725 0.59184 -2.42637
H 15.39138 -0.06552 -3.66614
N 8.85397 2.77644 0.43775
C 9.89458 3.62424 0.29759
C 9.30627 4.96758 0.18145
C 7.84274 4.86178 0.42966
C 7.74507 3.47647 0.84372
C 10.10583 6.17455 -0.21524
C 6.71913 5.84811 0.32550
O 5.56132 5.60435 0.81834
C 7.04010 7.14515 -0.28782
N 7.23643 0.63350 1.85145
C 6.40878 1.67809 2.02965
C 5.11812 1.24603 2.68379
C 5.15282 -0.35284 2.68801
C 6.55912 -0.57701 2.09011
C 4.89150 1.75365 4.10764
C 3.94747 -1.08466 2.03667
C 3.93722 -0.83607 0.54554
N 9.17984 -1.32781 0.89551
C 8.29496 -2.22359 1.53475
C 8.94475 -3.55032 1.53684
C 10.18223 -3.32777 0.91425
C 10.30410 -1.95490 0.56799
C 8.40882 -4.73820 2.10941
C 11.41755 -3.93994 0.48077
O 11.84515 -5.09250 0.43078
C 12.44404 -2.78904 0.09588
C 13.05627 -3.13801 -1.23299
O 12.35785 -3.17129 -2.26144
O 14.39580 -3.16120 -1.10852
C 15.04871 -3.49203 -2.40316
H 11.94274 4.12227 0.48520
H 5.85957 3.53685 1.77512
H 6.53204 -2.67595 2.39443
H 14.24662 -0.22251 0.05013
H 13.80115 2.52891 -0.36019
H 14.02707 0.85744 2.10868
H 13.02161 2.31105 2.28295
H 14.67862 2.51098 1.79921
H 13.09476 1.31402 -2.29040
H 13.13301 -0.48449 -2.38570
H 15.72908 0.41498 -1.63811
H 15.11708 1.64551 -2.68508
H 11.18368 5.97533 -0.17109
H 9.93859 6.93595 0.55428
H 9.80515 6.57919 -1.18402
H 7.83528 7.62512 0.27768
H 6.09059 7.67979 -0.35460
H 7.43302 6.96811 -1.29523
H 4.26281 1.57744 2.10785
H 5.17802 -0.75714 3.71062
H 3.95067 2.32425 4.22303
H 5.74114 2.35949 4.39330
H 4.88759 0.98368 4.87728
H 3.00724 -0.68496 2.42443
H 3.94203 -2.15421 2.21841
H 3.44056 0.13512 0.46067
H 3.37509 -1.61312 0.03149
H 4.95638 -0.72002 0.15888
H 8.59163 -5.53521 1.40099
H 7.34758 -4.63212 2.32455
H 9.00813 -4.80265 3.02152
H 13.19044 -2.73693 0.88946
H 15.68972 -4.36093 -2.22487
H 15.54413 -2.56013 -2.73463
H 14.41666 -3.85636 -3.20456

