%nproc=24
%mem=175gb
#p cam-b3lyp/Def2SVP td=(nstates=5)

TDDFT excited states in gaussian

0 1
Mg 0.00000 0.00000 0.00000
C -0.21700 -2.21800 2.80100
C -1.25500 2.44200 2.02600
C -0.24500 1.85000 -2.56400
C 0.14600 -2.82400 -2.03700
N -0.61700 -0.00900 2.12600
C -0.59400 -0.90800 3.10500
C -0.93600 -0.30900 4.50200
C -1.77300 0.96400 4.03200
C -1.15500 1.16800 2.66000
C -3.26300 0.68500 3.86300
C 0.34500 0.11000 5.29900
C 0.12400 0.39700 6.78700
H 1.16800 0.03300 7.73300
N -0.18500 1.96100 -0.15200
C -0.70300 2.80000 0.77700
C -0.62000 4.15600 0.19300
C -0.18700 4.01500 -1.22500
C -0.21400 2.58300 -1.38000
C -0.88700 5.40600 0.97400
C 0.18100 5.01300 -2.27700
O 0.30300 4.69000 -3.50800
C 0.31000 6.41400 -1.83700
N -0.26500 -0.41300 -2.02900
C -0.27900 0.56900 -2.93700
C -0.19600 0.02400 -4.33200
C 0.12400 -1.53300 -4.18000
C 0.08600 -1.63200 -2.63500
C -1.45100 0.20500 -5.19700
C 1.37300 -2.07000 -4.92300
C 2.62600 -1.49000 -4.30600
N 0.15000 -2.14400 0.30300
C 0.17300 -3.13600 -0.68800
C 0.17300 -4.43800 0.00400
C 0.13300 -4.11100 1.35800
C 0.08300 -2.69500 1.50200
C 0.14900 -5.71500 -0.62300
C 0.09600 -4.62900 2.71600
O 0.20800 -5.74700 3.22100
C -0.25500 -3.42800 3.70100
C 0.71700 -3.48200 4.84800
O 1.93100 -3.25500 4.66900
O 0.03800 -3.55600 6.00300
C 0.94300 -3.58300 7.18300
H -1.85900 3.22000 2.49700
H -0.21800 2.45300 -3.47400
H 0.27600 -3.74700 -2.60500
H -1.55400 -0.94900 5.13200
H -1.58500 1.83100 4.66500
H -3.48400 -0.37700 3.96900
H -3.51100 1.02700 2.85800
H -3.85200 1.30100 4.54300
H 0.66900 1.09600 4.96600
H 1.13000 -0.63900 5.18900
H -0.84400 0.02600 7.12500
H 0.06200 1.47700 6.92100
H -1.34400 5.18600 1.93800
H -1.65100 5.96300 0.43200
H 0.00700 6.02000 1.08400
H -0.63500 6.74400 -1.40500
H 0.66500 6.97000 -2.70400
H 1.04800 6.46600 -1.03600
H 0.60800 0.50100 -4.89100
H -0.69200 -2.15600 -4.54700
H -1.26700 0.74000 -6.12900
H -2.20400 0.71400 -4.59600
H -1.96700 -0.72000 -5.45300
H 1.35600 -1.75900 -5.96700
H 1.45200 -3.15700 -4.90200
H 2.71400 -0.52200 -4.79800
H 3.48700 -2.12100 -4.52900
H 2.49500 -1.30300 -3.24000
H 0.86700 -6.33300 -0.08400
H 0.40400 -5.64200 -1.68000
H -0.89100 -5.99900 -0.46300
H -1.28300 -3.58100 4.02800
H 0.69800 -4.47800 7.75500
H 0.83300 -2.61900 7.68000
H 2.00000 -3.75400 6.97600
Mg 7.88795 0.71461 0.60690
C 7.19431 -1.56013 3.29456
C 6.22052 3.09613 2.39090
C 8.08867 2.61235 -1.92800
C 8.47085 -2.06610 -1.41140
N 6.88231 0.65468 2.57600
C 6.73629 -0.24783 3.53439
C 6.13364 0.30625 4.85324
C 5.36383 1.57972 4.24948
C 6.22466 1.82126 3.01122
C 3.94836 1.26683 3.79354
C 7.23855 0.73694 5.88070
C 6.73033 0.99616 7.30066
H 7.59147 0.63806 8.42435
N 7.69147 2.68383 0.45809
C 6.99758 3.49692 1.28191
C 7.14747 4.85217 0.72962
C 7.84916 4.75053 -0.57882
C 7.88596 3.31163 -0.74713
C 6.71804 6.08495 1.47074
C 8.38544 5.77861 -1.52836
O 8.74562 5.47206 -2.71963
C 8.38906 7.17028 -1.05429
N 8.02260 0.33366 -1.43248
C 8.15161 1.33859 -2.31645
C 8.50666 0.81629 -3.68814
C 8.82805 -0.73728 -3.48636
C 8.50238 -0.86983 -1.98245
C 7.42972 0.97781 -4.76075
C 10.20761 -1.24191 -3.99117
C 11.31427 -0.64395 -3.15265
N 8.02960 -1.42073 0.90406
C 8.25486 -2.40607 -0.08206
C 8.15308 -3.72047 0.58460
C 7.85050 -3.40677 1.91822
C 7.74950 -1.99716 2.06756
C 8.28536 -4.98764 -0.05014
C 7.58310 -3.94799 3.23134
O 7.61625 -5.07182 3.73097
C 7.02159 -2.78177 4.15385
C 7.76126 -2.82796 5.46277
O 8.98018 -2.58567 5.50883
O 6.87274 -2.93542 6.46744
C 7.55779 -2.97387 7.78693
H 5.52590 3.85083 2.76079
H 8.27403 3.22533 -2.81309
H 8.73624 -2.97773 -1.95102
H 5.42996 -0.35521 5.34424
H 5.41845 2.43048 4.92371
H 3.73390 0.20957 3.84206
H 3.88343 1.61957 2.77256
H 3.22859 1.86085 4.36398
H 7.59535 1.74228 5.62240
H 8.03478 0.01866 5.90738
H 5.71687 0.60562 7.45344
H 6.62575 2.07485 7.44029
H 6.08544 5.83670 2.33190
H 6.05745 6.64660 0.80138
H 7.55949 6.72144 1.75272
H 7.37444 7.46799 -0.80058
H 8.89035 7.74405 -1.83619
H 8.97327 7.22309 -0.12881
H 9.38991 1.31071 -4.07352
H 8.10880 -1.37495 -4.02104
H 7.77707 1.54258 -5.64645
H 6.57212 1.46228 -4.31315
H 7.00258 0.04706 -5.13015
H 10.38068 -0.90806 -5.01721
H 10.30116 -2.32274 -3.98408
H 11.46579 0.33900 -3.60865
H 12.21454 -1.25178 -3.21671
H 10.98200 -0.48096 -2.12081
H 8.89707 -5.59908 0.59981
H 8.72747 -4.89241 -1.03970
H 7.23658 -5.29285 -0.09676
H 5.95186 -2.95163 4.28191
H 7.22596 -3.88586 8.29273
H 7.31827 -2.01099 8.27606
H 8.63296 -3.10975 7.78967

