%nproc=24
%mem=175gb
#p cam-b3lyp/Def2SVP td=(nstates=5)

TDDFT excited states in gaussian

0 1
Mg 0.00000 0.00000 0.00000
C -0.21700 -2.21800 2.80100
C -1.25500 2.44200 2.02600
C -0.24500 1.85000 -2.56400
C 0.14600 -2.82400 -2.03700
N -0.61700 -0.00900 2.12600
C -0.59400 -0.90800 3.10500
C -0.93600 -0.30900 4.50200
C -1.77300 0.96400 4.03200
C -1.15500 1.16800 2.66000
C -3.26300 0.68500 3.86300
C 0.34500 0.11000 5.29900
C 0.12400 0.39700 6.78700
H 1.16800 0.03300 7.73300
N -0.18500 1.96100 -0.15200
C -0.70300 2.80000 0.77700
C -0.62000 4.15600 0.19300
C -0.18700 4.01500 -1.22500
C -0.21400 2.58300 -1.38000
C -0.88700 5.40600 0.97400
C 0.18100 5.01300 -2.27700
O 0.30300 4.69000 -3.50800
C 0.31000 6.41400 -1.83700
N -0.26500 -0.41300 -2.02900
C -0.27900 0.56900 -2.93700
C -0.19600 0.02400 -4.33200
C 0.12400 -1.53300 -4.18000
C 0.08600 -1.63200 -2.63500
C -1.45100 0.20500 -5.19700
C 1.37300 -2.07000 -4.92300
C 2.62600 -1.49000 -4.30600
N 0.15000 -2.14400 0.30300
C 0.17300 -3.13600 -0.68800
C 0.17300 -4.43800 0.00400
C 0.13300 -4.11100 1.35800
C 0.08300 -2.69500 1.50200
C 0.14900 -5.71500 -0.62300
C 0.09600 -4.62900 2.71600
O 0.20800 -5.74700 3.22100
C -0.25500 -3.42800 3.70100
C 0.71700 -3.48200 4.84800
O 1.93100 -3.25500 4.66900
O 0.03800 -3.55600 6.00300
C 0.94300 -3.58300 7.18300
H -1.85900 3.22000 2.49700
H -0.21800 2.45300 -3.47400
H 0.27600 -3.74700 -2.60500
H -1.55400 -0.94900 5.13200
H -1.58500 1.83100 4.66500
H -3.48400 -0.37700 3.96900
H -3.51100 1.02700 2.85800
H -3.85200 1.30100 4.54300
H 0.66900 1.09600 4.96600
H 1.13000 -0.63900 5.18900
H -0.84400 0.02600 7.12500
H 0.06200 1.47700 6.92100
H -1.34400 5.18600 1.93800
H -1.65100 5.96300 0.43200
H 0.00700 6.02000 1.08400
H -0.63500 6.74400 -1.40500
H 0.66500 6.97000 -2.70400
H 1.04800 6.46600 -1.03600
H 0.60800 0.50100 -4.89100
H -0.69200 -2.15600 -4.54700
H -1.26700 0.74000 -6.12900
H -2.20400 0.71400 -4.59600
H -1.96700 -0.72000 -5.45300
H 1.35600 -1.75900 -5.96700
H 1.45200 -3.15700 -4.90200
H 2.71400 -0.52200 -4.79800
H 3.48700 -2.12100 -4.52900
H 2.49500 -1.30300 -3.24000
H 0.86700 -6.33300 -0.08400
H 0.40400 -5.64200 -1.68000
H -0.89100 -5.99900 -0.46300
H -1.28300 -3.58100 4.02800
H 0.69800 -4.47800 7.75500
H 0.83300 -2.61900 7.68000
H 2.00000 -3.75400 6.97600
Mg 8.94184 0.80919 0.68422
C 9.20906 -1.37042 3.52270
C 8.13459 3.30485 2.86473
C 8.25990 2.63864 -1.81687
C 8.64133 -2.03987 -1.30028
N 8.73192 0.83997 2.88587
C 8.91812 -0.03321 3.86425
C 8.86421 0.57753 5.29031
C 7.97117 1.87171 4.96404
C 8.32251 2.04529 3.48787
C 6.47729 1.61496 5.07247
C 10.28456 0.97908 5.82265
C 10.34531 1.29321 7.31911
H 11.54706 0.92052 8.06031
N 8.77353 2.78162 0.54364
C 8.46138 3.64426 1.53343
C 8.44444 4.97843 0.91386
C 8.61003 4.81514 -0.55605
C 8.53167 3.37271 -0.67152
C 8.36215 6.24606 1.71372
C 8.79400 5.79577 -1.67441
O 8.67842 5.44635 -2.90216
C 9.02102 7.19596 -1.28788
N 8.30137 0.37709 -1.24592
C 8.13041 1.35501 -2.15277
C 7.93596 0.78634 -3.53812
C 8.25441 -0.77562 -3.40997
C 8.50195 -0.85937 -1.88777
C 6.54572 0.97391 -4.14511
C 9.33191 -1.35504 -4.36703
C 10.69006 -0.79072 -4.01723
N 9.10812 -1.32329 0.98909
C 8.91908 -2.33975 0.02724
C 9.02432 -3.63282 0.73387
C 9.24616 -3.27578 2.07245
C 9.25687 -1.86002 2.19501
C 8.86863 -4.91859 0.14338
C 9.46311 -3.77460 3.41141
O 9.63877 -4.88736 3.90603
C 9.32271 -2.56327 4.43089
C 10.49089 -2.61471 5.37706
O 11.64856 -2.42845 4.96267
O 10.03239 -2.65830 6.64128
C 11.15400 -2.69922 7.61705
H 7.65230 4.09911 3.43519
H 8.12712 3.22248 -2.73065
H 8.65683 -2.97464 -1.86476
H 8.36851 -0.03937 6.03023
H 8.30042 2.73379 5.53829
H 6.25891 0.57017 5.23639
H 6.05280 1.94754 4.13426
H 6.03998 2.25439 5.84462
H 10.55596 1.96073 5.41344
H 11.00878 0.22529 5.58196
H 9.44663 0.95377 7.84836
H 10.33751 2.37845 7.44648
H 8.08348 6.04675 2.75584
H 7.52140 6.82281 1.31328
H 9.27005 6.84880 1.64239
H 8.18262 7.54615 -0.69045
H 9.21838 7.72823 -2.22041
H 9.90685 7.24211 -0.64462
H 8.63156 1.23041 -4.23958
H 7.36677 -1.39087 -3.61832
H 6.56149 1.50204 -5.11716
H 5.93122 1.50761 -3.43230
H 5.98009 0.05605 -4.29615
H 9.12594 -1.05252 -5.39670
H 9.38351 -2.43862 -4.35393
H 10.69708 0.17371 -4.53385
H 11.48131 -1.44107 -4.38466
H 10.76772 -0.58952 -2.94245
H 9.65509 -5.54323 0.54564
H 8.91765 -4.86608 -0.94226
H 7.86659 -5.17562 0.49709
H 8.37038 -2.68026 4.94950
H 11.00035 -3.58330 8.24353
H 11.14570 -1.71559 8.12317
H 12.14890 -2.88491 7.22956

