%nproc=24
%mem=175gb
#p cam-b3lyp/Def2SVP td=(nstates=5)

TDDFT excited states in gaussian

0 1
Mg 10.50554 0.95343 0.80418
C 12.75573 1.41606 3.56129
C 8.17285 -0.06869 3.07318
C 8.65298 0.10911 -1.62945
C 13.29521 0.90365 -1.28412
N 10.57433 0.74442 3.00505
C 11.46295 1.00839 3.95110
C 10.91216 0.90247 5.39850
C 9.69095 -0.10200 5.11817
C 9.43287 0.23073 3.65006
C 10.08265 -1.56716 5.21414
C 10.40635 2.28239 5.94803
C 10.14324 2.31702 7.45513
H 10.43513 3.54797 8.18454
N 8.55191 0.61108 0.73573
C 7.75720 0.22509 1.75589
C 6.40791 0.08938 1.18566
C 6.50181 0.26690 -0.28892
C 7.94031 0.31633 -0.45740
C 5.18276 -0.10372 2.03132
C 5.46835 0.36196 -1.37018
O 5.78131 0.27619 -2.61016
C 4.06871 0.46469 -0.93209
N 10.92143 0.35124 -1.14178
C 9.92984 0.09328 -2.01248
C 10.46221 -0.05186 -3.41814
C 11.99353 0.40371 -3.34676
C 12.11089 0.65962 -1.82817
C 10.37621 -1.45402 -4.02059
C 12.43981 1.52703 -4.32230
C 11.77079 2.83037 -3.94933
N 12.62470 1.30813 1.03092
C 13.61789 1.20853 0.03205
C 14.92166 1.42868 0.69097
C 14.59579 1.61975 2.04219
C 13.19010 1.50531 2.21663
C 16.19360 1.38661 0.05339
C 15.12230 1.88170 3.36237
O 16.23257 2.15575 3.81617
C 13.96639 1.63597 4.42533
C 13.94900 2.80532 5.37129
O 13.64596 3.94144 4.96630
O 14.07938 2.35408 6.63214
C 14.05672 3.47615 7.60798
H 7.44585 -0.61864 3.67145
H 8.05002 -0.07597 -2.52145
H 14.20358 1.00108 -1.88249
H 11.59725 0.46423 6.11431
H 8.82479 0.15042 5.72431
H 11.14798 -1.69203 5.33918
H 9.75470 -2.02061 4.28793
H 9.51321 -2.05835 6.00837
H 9.39018 2.46535 5.57565
H 11.08376 3.07016 5.68128
H 10.58006 1.45257 7.96978
H 9.06837 2.21339 7.62221
H 5.44408 -0.36234 3.06488
H 4.66833 -0.99272 1.65065
H 4.49985 0.74719 1.98395
H 3.81624 -0.40064 -0.32388
H 3.48718 0.61299 -1.84407
H 3.96803 1.34379 -0.28582
H 9.93288 0.60083 -4.10146
H 12.67682 -0.42628 -3.57930
H 9.81340 -1.48627 -4.97259
H 9.92549 -2.11241 -3.28991
H 11.33433 -1.93641 -4.20633
H 12.11909 1.29379 -5.34058
H 13.51433 1.67432 -4.34886
H 10.79119 2.75137 -4.43020
H 12.33465 3.67559 -4.33881
H 11.60311 2.89128 -2.86775
H 16.76057 2.22576 0.43401
H 16.09713 1.42940 -1.02949
H 16.55108 0.41169 0.39544
H 14.18614 0.69838 4.93741
H 14.97333 3.40213 8.20129
H 13.09693 3.38150 8.14983
H 14.13931 4.48309 7.21591

