%nproc=24
%mem=175gb
#p cam-b3lyp/Def2SVP td=(nstates=5)

TDDFT excited states in gaussian

0 1
Mg 7.88173 0.70232 0.60631
C 5.69629 2.43594 2.86407
C 10.09774 0.44373 3.18643
C 10.00729 -0.42359 -1.46292
C 6.04011 2.07838 -2.01297
N 7.79392 1.38988 2.70674
C 6.88755 1.98343 3.46868
C 7.24536 2.02689 4.97853
C 8.84162 1.90637 4.85094
C 8.92517 1.16948 3.51577
C 9.53636 3.24941 4.69954
C 6.63946 0.81605 5.77149
C 6.68663 0.95654 7.29457
H 5.58209 0.41064 8.07845
N 9.55042 -0.32765 0.91160
C 10.31084 -0.33311 2.02650
C 11.43772 -1.23450 1.74049
C 11.36863 -1.63190 0.30800
C 10.29458 -0.77457 -0.15188
C 12.39750 -1.69804 2.79755
C 12.14962 -2.61106 -0.51509
O 12.07878 -2.62245 -1.79481
C 13.07055 -3.49407 0.21544
N 8.14153 0.97664 -1.43810
C 9.11320 0.32888 -2.10457
C 8.93508 0.46583 -3.59785
C 7.49921 1.14062 -3.79916
C 7.11713 1.36856 -2.32016
C 9.99406 1.29808 -4.32056
C 6.49254 0.39300 -4.71587
C 6.07231 -0.90699 -4.06870
N 6.07053 1.86570 0.42146
C 5.49089 2.35837 -0.76824
C 4.33315 3.18851 -0.37717
C 4.33330 3.13956 1.02500
C 5.42674 2.35219 1.47660
C 3.48103 3.90017 -1.26798
C 3.66336 3.58365 2.22611
O 2.62768 4.20354 2.46449
C 4.59030 3.25173 3.47391
C 3.73649 2.59887 4.52618
O 3.22408 1.48420 4.32231
O 3.84340 3.29331 5.67365
C 3.02295 2.67817 6.75082
H 10.95350 0.50757 3.85910
H 10.64661 -0.87774 -2.22352
H 5.35707 2.46180 -2.77397
H 6.98115 2.94932 5.48161
H 9.25680 1.29695 5.64943
H 8.82974 4.05775 4.58372
H 10.15816 3.16127 3.81826
H 10.22106 3.41606 5.53604
H 7.29089 -0.05796 5.64316
H 5.63251 0.62067 5.45764
H 6.90858 1.98418 7.60705
H 7.53089 0.37373 7.67084
H 12.29679 -1.10997 3.71811
H 13.40589 -1.46771 2.43706
H 12.32714 -2.77089 2.98913
H 13.79072 -2.89100 0.76328
H 13.47060 -4.18184 -0.53208
H 12.49813 -4.05603 0.96187
H 8.93764 -0.50489 -4.07826
H 7.57787 2.13605 -4.26041
H 10.50559 0.74514 -5.13091
H 10.70982 1.64930 -3.58922
H 9.63270 2.22841 -4.75544
H 6.96776 0.12847 -5.66368
H 5.60764 0.97507 -4.95071
H 6.88267 -1.59055 -4.33915
H 5.11974 -1.24511 -4.47159
H 6.06631 -0.81878 -2.97607
H 2.46781 3.74017 -0.92408
H 3.61070 3.56512 -2.29497
H 3.84976 4.91853 -1.11879
H 5.02097 4.19164 3.82130
H 2.35298 3.45760 7.12674
H 3.74638 2.24685 7.46800
H 2.31411 1.91013 6.46429

