%nproc=24
%mem=175gb
#p cam-b3lyp/Def2SVP td=(nstates=5)

TDDFT excited states in gaussian

0 1
Mg 13.14438 1.17860 1.00584
C 10.61328 0.53011 3.46593
C 14.64880 3.20105 3.30388
C 15.13726 2.12191 -1.27583
C 10.89091 0.05974 -1.40575
N 12.60508 1.71539 3.08268
C 11.65413 1.35942 3.93317
C 11.87142 1.85876 5.38679
C 12.81493 3.11895 5.06965
C 13.42629 2.64159 3.75396
C 12.04011 4.39811 4.79996
C 12.60875 0.79922 6.27883
C 12.57965 1.09109 7.78073
H 12.48911 -0.03433 8.70686
N 14.91466 2.06654 1.13325
C 15.37017 2.83157 2.14741
C 16.71898 3.26438 1.75047
C 16.95781 2.82811 0.34785
C 15.64260 2.32922 -0.00060
C 17.66560 3.94639 2.69503
C 18.16609 2.86677 -0.53802
O 18.08370 2.65206 -1.79894
C 19.43331 3.25511 0.09824
N 12.96301 1.30398 -1.06146
C 13.99857 1.69705 -1.82372
C 13.72459 1.44629 -3.28743
C 12.38295 0.57697 -3.33062
C 12.05019 0.55009 -1.82266
C 13.55113 2.69285 -4.15483
C 12.44276 -0.77189 -4.09852
C 13.34788 -1.74006 -3.37133
N 11.19067 0.25608 1.01173
C 10.41544 -0.10701 -0.11133
C 9.11505 -0.59133 0.39546
C 9.21622 -0.45372 1.78805
C 10.48214 0.09766 2.12409
C 8.02257 -1.03173 -0.40370
C 8.53592 -0.63959 3.04954
O 7.47178 -1.15109 3.39551
C 9.36180 0.10709 4.18390
C 9.50627 -0.83356 5.34873
O 10.16938 -1.87978 5.23779
O 9.02391 -0.24087 6.45617
C 9.15520 -1.13058 7.64066
H 15.07741 4.03134 3.86585
H 15.82857 2.32811 -2.09623
H 10.17154 -0.39818 -2.08802
H 10.97173 2.18616 5.89389
H 13.58511 3.23638 5.82754
H 10.97595 4.22153 4.74962
H 12.40714 4.77012 3.85236
H 12.29790 5.15865 5.54255
H 13.68884 0.86611 6.09532
H 12.22656 -0.18599 6.09470
H 11.84073 1.86005 8.03696
H 13.53698 1.53340 8.06690
H 17.15348 4.28188 3.60530
H 17.99029 4.87275 2.20894
H 18.54468 3.33935 2.92175
H 19.32818 4.24376 0.53867
H 20.19602 3.13792 -0.67404
H 19.63711 2.56319 0.92306
H 14.52730 0.87636 -3.73902
H 11.56234 1.11837 -3.82391
H 14.25616 2.73353 -5.00651
H 13.66467 3.56532 -3.52519
H 12.55332 2.83357 -4.56686
H 12.87852 -0.62438 -5.08973
H 11.47051 -1.23218 -4.23940
H 14.34501 -1.45516 -3.72012
H 13.11158 -2.76592 -3.64667
H 13.31650 -1.57079 -2.28874
H 7.63507 -1.92670 0.06468
H 8.33131 -1.22083 -1.42970
H 7.36243 -0.16362 -0.32706
H 8.80937 1.00857 4.45174
H 8.15589 -1.23442 8.07456
H 9.93469 -0.66934 8.27580
H 9.41714 -2.16696 7.46246

