%nproc=24
%mem=175gb
#p cam-b3lyp/Def2SVP td=(nstates=5)

TDDFT excited states in gaussian

0 1
Mg 0.00000 0.00000 0.00000
C -0.21700 -2.21800 2.80100
C -1.25500 2.44200 2.02600
C -0.24500 1.85000 -2.56400
C 0.14600 -2.82400 -2.03700
N -0.61700 -0.00900 2.12600
C -0.59400 -0.90800 3.10500
C -0.93600 -0.30900 4.50200
C -1.77300 0.96400 4.03200
C -1.15500 1.16800 2.66000
C -3.26300 0.68500 3.86300
C 0.34500 0.11000 5.29900
C 0.12400 0.39700 6.78700
H 1.16800 0.03300 7.73300
N -0.18500 1.96100 -0.15200
C -0.70300 2.80000 0.77700
C -0.62000 4.15600 0.19300
C -0.18700 4.01500 -1.22500
C -0.21400 2.58300 -1.38000
C -0.88700 5.40600 0.97400
C 0.18100 5.01300 -2.27700
O 0.30300 4.69000 -3.50800
C 0.31000 6.41400 -1.83700
N -0.26500 -0.41300 -2.02900
C -0.27900 0.56900 -2.93700
C -0.19600 0.02400 -4.33200
C 0.12400 -1.53300 -4.18000
C 0.08600 -1.63200 -2.63500
C -1.45100 0.20500 -5.19700
C 1.37300 -2.07000 -4.92300
C 2.62600 -1.49000 -4.30600
N 0.15000 -2.14400 0.30300
C 0.17300 -3.13600 -0.68800
C 0.17300 -4.43800 0.00400
C 0.13300 -4.11100 1.35800
C 0.08300 -2.69500 1.50200
C 0.14900 -5.71500 -0.62300
C 0.09600 -4.62900 2.71600
O 0.20800 -5.74700 3.22100
C -0.25500 -3.42800 3.70100
C 0.71700 -3.48200 4.84800
O 1.93100 -3.25500 4.66900
O 0.03800 -3.55600 6.00300
C 0.94300 -3.58300 7.18300
H -1.85900 3.22000 2.49700
H -0.21800 2.45300 -3.47400
H 0.27600 -3.74700 -2.60500
H -1.55400 -0.94900 5.13200
H -1.58500 1.83100 4.66500
H -3.48400 -0.37700 3.96900
H -3.51100 1.02700 2.85800
H -3.85200 1.30100 4.54300
H 0.66900 1.09600 4.96600
H 1.13000 -0.63900 5.18900
H -0.84400 0.02600 7.12500
H 0.06200 1.47700 6.92100
H -1.34400 5.18600 1.93800
H -1.65100 5.96300 0.43200
H 0.00700 6.02000 1.08400
H -0.63500 6.74400 -1.40500
H 0.66500 6.97000 -2.70400
H 1.04800 6.46600 -1.03600
H 0.60800 0.50100 -4.89100
H -0.69200 -2.15600 -4.54700
H -1.26700 0.74000 -6.12900
H -2.20400 0.71400 -4.59600
H -1.96700 -0.72000 -5.45300
H 1.35600 -1.75900 -5.96700
H 1.45200 -3.15700 -4.90200
H 2.71400 -0.52200 -4.79800
H 3.48700 -2.12100 -4.52900
H 2.49500 -1.30300 -3.24000
H 0.86700 -6.33300 -0.08400
H 0.40400 -5.64200 -1.68000
H -0.89100 -5.99900 -0.46300
H -1.28300 -3.58100 4.02800
H 0.69800 -4.47800 7.75500
H 0.83300 -2.61900 7.68000
H 2.00000 -3.75400 6.97600
Mg 8.92829 0.80833 0.68649
C 6.56321 -1.84705 1.17063
C 6.28150 2.83085 -0.04737
C 11.00517 3.04371 -0.18361
C 11.38889 -1.63446 0.33447
N 6.75127 0.42567 0.60633
C 5.96380 -0.60620 0.86990
C 4.44824 -0.27098 0.88637
C 4.47961 1.03060 -0.05372
C 5.91449 1.48499 0.20576
C 4.34060 0.70851 -1.53233
C 3.92772 0.07276 2.32614
C 2.40442 0.10747 2.46798
H 1.81121 -0.35512 3.71961
N 8.69036 2.76613 0.46514
C 7.54208 3.42060 0.19237
C 7.90092 4.84479 0.10839
C 9.38229 4.96092 0.19056
C 9.75960 3.56270 0.13850
C 6.87603 5.93977 0.04454
C 10.30704 6.13650 0.28569
O 11.57033 6.01575 0.10581
C 9.67966 7.44822 0.50309
N 10.86781 0.71833 -0.05683
C 11.56645 1.84040 -0.30335
C 13.02088 1.53072 -0.56624
C 13.20275 -0.01658 -0.20517
C 11.73824 -0.37120 0.13370
C 13.50670 1.78042 -1.99383
C 14.30743 -0.37330 0.82688
C 13.93239 0.16189 2.19007
N 9.03469 -1.33703 0.91917
C 10.15719 -2.16449 0.69692
C 9.71005 -3.56141 0.87324
C 8.34234 -3.45006 1.16554
C 7.95940 -2.08161 1.15111
C 10.52010 -4.72075 0.71237
C 7.13314 -4.17965 1.47254
O 6.86426 -5.35803 1.70248
C 5.90013 -3.18241 1.36496
C 5.04428 -3.36835 2.58785
O 5.47849 -3.07033 3.71446
O 3.78742 -3.65955 2.20594
C 2.89806 -3.84218 3.38387
H 5.54818 3.48976 -0.51315
H 11.78595 3.78123 -0.38344
H 12.11736 -2.44809 0.33796
H 3.81036 -1.02993 0.44946
H 3.77364 1.78255 0.28909
H 4.36233 -0.35529 -1.71671
H 5.17638 1.19399 -2.01899
H 3.44062 1.17966 -1.93777
H 4.16124 1.12153 2.55039
H 4.34300 -0.59912 3.05191
H 1.89995 -0.35354 1.61012
H 2.07723 1.14975 2.44292
H 5.87569 5.54256 -0.16746
H 7.11640 6.55205 -0.83135
H 6.88278 6.57532 0.93263
H 8.98330 7.65407 -0.30634
H 10.50618 8.14958 0.63281
H 9.08765 7.40455 1.42409
H 13.66392 2.11948 0.07638
H 13.47381 -0.61217 -1.08927
H 14.36301 2.47894 -2.04757
H 12.67507 2.15274 -2.57718
H 13.79513 0.88778 -2.54627
H 15.25028 0.10681 0.55360
H 14.49886 -1.43839 0.90391
H 14.26026 1.20473 2.14452
H 14.45638 -0.38277 2.97289
H 12.84471 0.16399 2.32645
H 10.28393 -5.38222 1.53528
H 11.57808 -4.46739 0.69596
H 10.16696 -5.07190 -0.26090
H 5.36185 -3.42475 0.44784
H 2.43957 -4.83123 3.28773
H 2.21816 -2.96955 3.38300
H 3.36629 -3.91991 4.35812

