%nproc=24
%mem=175gb
#p cam-b3lyp/Def2SVP td=(nstates=5)

TDDFT excited states in gaussian

0 1
Mg 0.00000 0.00000 0.00000
C -0.21700 -2.21800 2.80100
C -1.25500 2.44200 2.02600
C -0.24500 1.85000 -2.56400
C 0.14600 -2.82400 -2.03700
N -0.61700 -0.00900 2.12600
C -0.59400 -0.90800 3.10500
C -0.93600 -0.30900 4.50200
C -1.77300 0.96400 4.03200
C -1.15500 1.16800 2.66000
C -3.26300 0.68500 3.86300
C 0.34500 0.11000 5.29900
C 0.12400 0.39700 6.78700
H 1.16800 0.03300 7.73300
N -0.18500 1.96100 -0.15200
C -0.70300 2.80000 0.77700
C -0.62000 4.15600 0.19300
C -0.18700 4.01500 -1.22500
C -0.21400 2.58300 -1.38000
C -0.88700 5.40600 0.97400
C 0.18100 5.01300 -2.27700
O 0.30300 4.69000 -3.50800
C 0.31000 6.41400 -1.83700
N -0.26500 -0.41300 -2.02900
C -0.27900 0.56900 -2.93700
C -0.19600 0.02400 -4.33200
C 0.12400 -1.53300 -4.18000
C 0.08600 -1.63200 -2.63500
C -1.45100 0.20500 -5.19700
C 1.37300 -2.07000 -4.92300
C 2.62600 -1.49000 -4.30600
N 0.15000 -2.14400 0.30300
C 0.17300 -3.13600 -0.68800
C 0.17300 -4.43800 0.00400
C 0.13300 -4.11100 1.35800
C 0.08300 -2.69500 1.50200
C 0.14900 -5.71500 -0.62300
C 0.09600 -4.62900 2.71600
O 0.20800 -5.74700 3.22100
C -0.25500 -3.42800 3.70100
C 0.71700 -3.48200 4.84800
O 1.93100 -3.25500 4.66900
O 0.03800 -3.55600 6.00300
C 0.94300 -3.58300 7.18300
H -1.85900 3.22000 2.49700
H -0.21800 2.45300 -3.47400
H 0.27600 -3.74700 -2.60500
H -1.55400 -0.94900 5.13200
H -1.58500 1.83100 4.66500
H -3.48400 -0.37700 3.96900
H -3.51100 1.02700 2.85800
H -3.85200 1.30100 4.54300
H 0.66900 1.09600 4.96600
H 1.13000 -0.63900 5.18900
H -0.84400 0.02600 7.12500
H 0.06200 1.47700 6.92100
H -1.34400 5.18600 1.93800
H -1.65100 5.96300 0.43200
H 0.00700 6.02000 1.08400
H -0.63500 6.74400 -1.40500
H 0.66500 6.97000 -2.70400
H 1.04800 6.46600 -1.03600
H 0.60800 0.50100 -4.89100
H -0.69200 -2.15600 -4.54700
H -1.26700 0.74000 -6.12900
H -2.20400 0.71400 -4.59600
H -1.96700 -0.72000 -5.45300
H 1.35600 -1.75900 -5.96700
H 1.45200 -3.15700 -4.90200
H 2.71400 -0.52200 -4.79800
H 3.48700 -2.12100 -4.52900
H 2.49500 -1.30300 -3.24000
H 0.86700 -6.33300 -0.08400
H 0.40400 -5.64200 -1.68000
H -0.89100 -5.99900 -0.46300
H -1.28300 -3.58100 4.02800
H 0.69800 -4.47800 7.75500
H 0.83300 -2.61900 7.68000
H 2.00000 -3.75400 6.97600
Mg 10.51724 0.94289 0.80619
C 8.11621 0.01000 3.30496
C 11.78210 3.16421 3.06461
C 12.34938 2.10273 -1.51015
C 8.39450 -0.47734 -1.56501
N 9.93878 1.43141 2.88441
C 9.04996 0.96865 3.75054
C 9.21955 1.50785 5.19625
C 9.99357 2.87278 4.85456
C 10.64483 2.46093 3.53588
C 9.06114 4.04144 4.58227
C 10.09438 0.55946 6.08913
C 10.04618 0.86248 7.58833
H 10.10842 -0.25477 8.52661
N 12.16331 2.04735 0.90203
C 12.53078 2.87501 1.90264
C 13.80987 3.46910 1.48411
C 14.08541 3.05028 0.08290
C 12.83935 2.38635 -0.24364
C 14.67415 4.27524 2.40963
C 15.26896 3.23015 -0.81878
O 15.19965 2.99243 -2.07637
C 16.48462 3.78168 -0.20276
N 10.29772 1.02093 -1.25973
C 11.26683 1.53212 -2.03911
C 11.00966 1.23228 -3.49663
C 9.78744 0.20104 -3.51395
C 9.47811 0.14981 -2.00164
C 10.67099 2.43725 -4.37398
C 10.00735 -1.13832 -4.26921
C 11.03525 -1.97690 -3.54422
N 8.69509 -0.21738 0.84634
C 7.95871 -0.68767 -0.26300
C 6.73539 -1.32553 0.26525
C 6.83453 -1.16043 1.65500
C 8.02496 -0.45076 1.96925
C 5.69774 -1.90863 -0.51539
C 6.19757 -1.41580 2.92691
O 5.21018 -2.05282 3.29159
C 6.93615 -0.55850 4.04312
C 7.21106 -1.46024 5.21522
O 7.99902 -2.41618 5.10608
O 6.67088 -0.92017 6.32288
C 6.92655 -1.77280 7.51430
H 12.10947 4.04808 3.61278
H 12.99980 2.38469 -2.34137
H 7.73053 -1.02967 -2.23341
H 8.29178 1.72553 5.71164
H 10.75159 3.09456 5.60128
H 8.02708 3.73216 4.54738
H 9.36757 4.44573 3.62639
H 9.22990 4.83674 5.31394
H 11.15533 0.75926 5.89108
H 9.83688 -0.46796 5.91967
H 9.21952 1.53550 7.84645
H 10.94361 1.42466 7.85777
H 14.13448 4.55417 3.32306
H 14.87427 5.22942 1.91028
H 15.62507 3.78594 2.63099
H 16.26121 4.75428 0.22920
H 17.24705 3.75232 -0.98361
H 16.78322 3.13025 0.62615
H 11.87234 0.76247 -3.95287
H 8.89969 0.62952 -4.00195
H 11.35545 2.55636 -5.23502
H 10.68129 3.32419 -3.75449
H 9.65871 2.44694 -4.77449
H 10.40966 -0.94861 -5.26736
H 9.09906 -1.71856 -4.39301
H 11.98460 -1.57313 -3.90862
H 10.92653 -3.02738 -3.80636
H 10.99535 -1.80056 -2.46304
H 5.43117 -2.83975 -0.03325
H 6.01594 -2.06918 -1.54337
H 4.93471 -1.12940 -0.43882
H 6.27798 0.26952 4.30915
H 5.95327 -1.99628 7.96204
H 7.64920 -1.21018 8.13477
H 7.31453 -2.77008 7.34297

