%nproc=24
%mem=175gb
#p cam-b3lyp/Def2SVP td=(nstates=5)

TDDFT excited states in gaussian

0 1
Mg 0.00000 0.00000 0.00000
C -0.21700 -2.21800 2.80100
C -1.25500 2.44200 2.02600
C -0.24500 1.85000 -2.56400
C 0.14600 -2.82400 -2.03700
N -0.61700 -0.00900 2.12600
C -0.59400 -0.90800 3.10500
C -0.93600 -0.30900 4.50200
C -1.77300 0.96400 4.03200
C -1.15500 1.16800 2.66000
C -3.26300 0.68500 3.86300
C 0.34500 0.11000 5.29900
C 0.12400 0.39700 6.78700
H 1.16800 0.03300 7.73300
N -0.18500 1.96100 -0.15200
C -0.70300 2.80000 0.77700
C -0.62000 4.15600 0.19300
C -0.18700 4.01500 -1.22500
C -0.21400 2.58300 -1.38000
C -0.88700 5.40600 0.97400
C 0.18100 5.01300 -2.27700
O 0.30300 4.69000 -3.50800
C 0.31000 6.41400 -1.83700
N -0.26500 -0.41300 -2.02900
C -0.27900 0.56900 -2.93700
C -0.19600 0.02400 -4.33200
C 0.12400 -1.53300 -4.18000
C 0.08600 -1.63200 -2.63500
C -1.45100 0.20500 -5.19700
C 1.37300 -2.07000 -4.92300
C 2.62600 -1.49000 -4.30600
N 0.15000 -2.14400 0.30300
C 0.17300 -3.13600 -0.68800
C 0.17300 -4.43800 0.00400
C 0.13300 -4.11100 1.35800
C 0.08300 -2.69500 1.50200
C 0.14900 -5.71500 -0.62300
C 0.09600 -4.62900 2.71600
O 0.20800 -5.74700 3.22100
C -0.25500 -3.42800 3.70100
C 0.71700 -3.48200 4.84800
O 1.93100 -3.25500 4.66900
O 0.03800 -3.55600 6.00300
C 0.94300 -3.58300 7.18300
H -1.85900 3.22000 2.49700
H -0.21800 2.45300 -3.47400
H 0.27600 -3.74700 -2.60500
H -1.55400 -0.94900 5.13200
H -1.58500 1.83100 4.66500
H -3.48400 -0.37700 3.96900
H -3.51100 1.02700 2.85800
H -3.85200 1.30100 4.54300
H 0.66900 1.09600 4.96600
H 1.13000 -0.63900 5.18900
H -0.84400 0.02600 7.12500
H 0.06200 1.47700 6.92100
H -1.34400 5.18600 1.93800
H -1.65100 5.96300 0.43200
H 0.00700 6.02000 1.08400
H -0.63500 6.74400 -1.40500
H 0.66500 6.97000 -2.70400
H 1.04800 6.46600 -1.03600
H 0.60800 0.50100 -4.89100
H -0.69200 -2.15600 -4.54700
H -1.26700 0.74000 -6.12900
H -2.20400 0.71400 -4.59600
H -1.96700 -0.72000 -5.45300
H 1.35600 -1.75900 -5.96700
H 1.45200 -3.15700 -4.90200
H 2.71400 -0.52200 -4.79800
H 3.48700 -2.12100 -4.52900
H 2.49500 -1.30300 -3.24000
H 0.86700 -6.33300 -0.08400
H 0.40400 -5.64200 -1.68000
H -0.89100 -5.99900 -0.46300
H -1.28300 -3.58100 4.02800
H 0.69800 -4.47800 7.75500
H 0.83300 -2.61900 7.68000
H 2.00000 -3.75400 6.97600
Mg 31.53908 2.84054 2.40350
C 31.49981 -0.37431 3.99793
C 30.31841 4.13307 5.31450
C 31.13631 5.60150 0.89277
C 31.65259 1.16906 -0.65247
N 31.01796 1.89996 4.33637
C 31.10300 0.68044 4.84615
C 30.81979 0.59921 6.37021
C 29.92422 1.92382 6.51931
C 30.47306 2.72398 5.33982
C 28.44327 1.67882 6.28246
C 32.13061 0.69258 7.22756
C 31.96426 0.31170 8.70032
H 33.06445 -0.37672 9.36976
N 31.30305 4.67528 3.12225
C 30.81490 5.01846 4.33271
C 30.82544 6.48910 4.36856
C 31.20500 6.98850 3.01902
C 31.20935 5.74768 2.27039
C 30.57313 7.27430 5.62284
C 31.50097 8.35802 2.48702
O 31.57661 8.58973 1.22868
C 31.60710 9.43788 3.47905
N 31.19901 3.32012 0.40933
C 31.11414 4.60163 0.01125
C 31.14408 4.70811 -1.49479
C 31.51171 3.24364 -2.02181
C 31.54447 2.49043 -0.67385
C 29.84687 5.17538 -2.15456
C 32.73919 3.12301 -2.96596
C 34.00700 3.44437 -2.20783
N 31.75707 0.78973 1.75954
C 31.75264 0.30736 0.43236
C 31.81521 -1.16684 0.50472
C 31.82859 -1.44305 1.88022
C 31.75755 -0.22779 2.61343
C 31.80333 -2.05554 -0.60712
C 31.87593 -2.48686 2.87868
O 32.03000 -3.70724 2.85295
C 31.53757 -1.84789 4.29418
C 32.56092 -2.33803 5.28162
O 33.75599 -2.01358 5.16693
O 31.93027 -2.92557 6.31479
C 32.90290 -3.41833 7.32623
H 29.72456 4.60400 6.09837
H 31.10806 6.53180 0.32074
H 31.79037 0.57984 -1.56160
H 30.25270 -0.26998 6.68117
H 30.12926 2.43590 7.45584
H 28.25150 0.67426 5.93570
H 28.14142 2.40106 5.53527
H 27.87233 1.92077 7.18347
H 32.41245 1.74772 7.33705
H 32.91509 0.10686 6.78922
H 31.01597 -0.20663 8.88745
H 31.88924 1.22884 9.28960
H 30.15886 6.64126 6.41722
H 29.77234 7.98714 5.39820
H 31.45367 7.82622 5.95856
H 30.67745 9.50656 4.03895
H 31.91032 10.32290 2.91631
H 32.38978 9.17537 4.19955
H 31.91123 5.40087 -1.81832
H 30.69142 2.80365 -2.60779
H 29.97632 6.07819 -2.78086
H 29.11394 5.35268 -1.37873
H 29.35062 4.43154 -2.77556
H 32.66777 3.85386 -3.77523
H 32.83754 2.14431 -3.42364
H 34.04341 4.53741 -2.23998
H 34.87104 3.00593 -2.70304
H 33.92228 3.14818 -1.15581
H 32.55234 -2.81092 -0.40993
H 32.00333 -1.52983 -1.53846
H 30.77397 -2.42010 -0.55442
H 30.52764 -2.16084 4.56189
H 32.70227 -4.48459 7.46947
H 32.77829 -2.75966 8.20622
H 33.95008 -3.43571 7.04772

