%nproc=24
%mem=175gb
#p cam-b3lyp/Def2SVP td=(nstates=5)

TDDFT excited states in gaussian

0 1
Mg 8.93764 0.81204 0.68510
C 9.92071 -1.09052 3.56484
C 6.73213 2.45084 2.70615
C 7.73473 2.18672 -1.90926
C 10.34827 -1.69601 -1.28100
N 8.47865 0.61654 2.83994
C 8.95929 -0.09767 3.84654
C 8.43568 0.32757 5.24460
C 7.06015 1.01810 4.78639
C 7.45077 1.42230 3.36628
C 5.89652 0.04428 4.70282
C 9.38687 1.35575 5.95176
C 9.10195 1.57801 7.43877
H 10.22957 1.81638 8.33549
N 7.82012 2.44111 0.49580
C 7.00112 2.97846 1.42412
C 6.39105 4.15671 0.78875
C 6.79094 4.17651 -0.64457
C 7.46179 2.89621 -0.74879
C 5.58838 5.16917 1.55299
C 6.59019 5.17595 -1.74322
O 6.81368 4.88148 -2.97048
C 6.03540 6.47953 -1.35031
N 8.83720 0.22136 -1.30572
C 8.30847 1.02994 -2.24091
C 8.59336 0.51490 -3.63157
C 9.63491 -0.68359 -3.44086
C 9.70662 -0.71348 -1.89834
C 7.38114 0.01515 -4.41718
C 10.96333 -0.59556 -4.24100
C 11.80141 0.55204 -3.72521
N 10.11410 -0.96520 1.03927
C 10.57768 -1.88734 0.07552
C 11.23233 -2.99059 0.80812
C 11.08274 -2.64237 2.15899
C 10.36649 -1.41930 2.26179
C 11.81520 -4.14874 0.22068
C 11.35859 -3.03671 3.52174
O 12.00842 -3.93759 4.05078
C 10.50809 -2.11365 4.49694
C 11.42114 -1.62516 5.58792
O 12.36884 -0.86389 5.32534
O 10.89886 -1.95917 6.78208
C 11.76320 -1.48642 7.89620
H 5.85197 2.86642 3.19756
H 7.43737 2.67396 -2.84074
H 10.89844 -2.46653 -1.82533
H 8.23216 -0.49286 5.92229
H 6.84058 1.89741 5.38635
H 6.21435 -0.97698 4.85169
H 5.47836 0.16987 3.71266
H 5.10844 0.33769 5.40223
H 9.17554 2.36195 5.56752
H 10.41443 1.07841 5.81824
H 8.43922 0.80750 7.85114
H 8.53520 2.50578 7.54861
H 5.32491 4.80214 2.55263
H 4.62668 5.26938 1.03824
H 6.07196 6.14758 1.59205
H 5.06993 6.33184 -0.87228
H 6.04894 7.08804 -2.25662
H 6.69391 6.92754 -0.59781
H 9.05025 1.28364 -4.24262
H 9.20845 -1.64780 -3.75436
H 7.24596 0.53151 -5.38629
H 6.50149 0.13182 -3.79819
H 7.37554 -1.05297 -4.62761
H 10.75839 -0.38196 -5.29291
H 11.54994 -1.50750 -4.20590
H 11.38514 1.41705 -4.25015
H 12.84964 0.40437 -3.97711
H 11.63817 0.70755 -2.65245
H 12.75421 -4.31757 0.73083
H 11.96087 -4.02102 -0.84995
H 11.04359 -4.89025 0.44438
H 9.68901 -2.71803 4.88861
H 12.00038 -2.36102 8.50980
H 11.20166 -0.66694 8.38290
H 12.75498 -1.12951 7.64436

