%nproc=24
%mem=175gb
#p cam-b3lyp/Def2SVP td=(nstates=5)

TDDFT excited states in gaussian

0 1
Mg 0.00000 0.00000 0.00000
C -0.21700 -2.21800 2.80100
C -1.25500 2.44200 2.02600
C -0.24500 1.85000 -2.56400
C 0.14600 -2.82400 -2.03700
N -0.61700 -0.00900 2.12600
C -0.59400 -0.90800 3.10500
C -0.93600 -0.30900 4.50200
C -1.77300 0.96400 4.03200
C -1.15500 1.16800 2.66000
C -3.26300 0.68500 3.86300
C 0.34500 0.11000 5.29900
C 0.12400 0.39700 6.78700
H 1.16800 0.03300 7.73300
N -0.18500 1.96100 -0.15200
C -0.70300 2.80000 0.77700
C -0.62000 4.15600 0.19300
C -0.18700 4.01500 -1.22500
C -0.21400 2.58300 -1.38000
C -0.88700 5.40600 0.97400
C 0.18100 5.01300 -2.27700
O 0.30300 4.69000 -3.50800
C 0.31000 6.41400 -1.83700
N -0.26500 -0.41300 -2.02900
C -0.27900 0.56900 -2.93700
C -0.19600 0.02400 -4.33200
C 0.12400 -1.53300 -4.18000
C 0.08600 -1.63200 -2.63500
C -1.45100 0.20500 -5.19700
C 1.37300 -2.07000 -4.92300
C 2.62600 -1.49000 -4.30600
N 0.15000 -2.14400 0.30300
C 0.17300 -3.13600 -0.68800
C 0.17300 -4.43800 0.00400
C 0.13300 -4.11100 1.35800
C 0.08300 -2.69500 1.50200
C 0.14900 -5.71500 -0.62300
C 0.09600 -4.62900 2.71600
O 0.20800 -5.74700 3.22100
C -0.25500 -3.42800 3.70100
C 0.71700 -3.48200 4.84800
O 1.93100 -3.25500 4.66900
O 0.03800 -3.55600 6.00300
C 0.94300 -3.58300 7.18300
H -1.85900 3.22000 2.49700
H -0.21800 2.45300 -3.47400
H 0.27600 -3.74700 -2.60500
H -1.55400 -0.94900 5.13200
H -1.58500 1.83100 4.66500
H -3.48400 -0.37700 3.96900
H -3.51100 1.02700 2.85800
H -3.85200 1.30100 4.54300
H 0.66900 1.09600 4.96600
H 1.13000 -0.63900 5.18900
H -0.84400 0.02600 7.12500
H 0.06200 1.47700 6.92100
H -1.34400 5.18600 1.93800
H -1.65100 5.96300 0.43200
H 0.00700 6.02000 1.08400
H -0.63500 6.74400 -1.40500
H 0.66500 6.97000 -2.70400
H 1.04800 6.46600 -1.03600
H 0.60800 0.50100 -4.89100
H -0.69200 -2.15600 -4.54700
H -1.26700 0.74000 -6.12900
H -2.20400 0.71400 -4.59600
H -1.96700 -0.72000 -5.45300
H 1.35600 -1.75900 -5.96700
H 1.45200 -3.15700 -4.90200
H 2.71400 -0.52200 -4.79800
H 3.48700 -2.12100 -4.52900
H 2.49500 -1.30300 -3.24000
H 0.86700 -6.33300 -0.08400
H 0.40400 -5.64200 -1.68000
H -0.89100 -5.99900 -0.46300
H -1.28300 -3.58100 4.02800
H 0.69800 -4.47800 7.75500
H 0.83300 -2.61900 7.68000
H 2.00000 -3.75400 6.97600
Mg 7.88979 0.70998 0.60708
C 7.92041 -2.74735 1.56885
C 6.70624 1.41318 3.72787
C 7.42452 3.69880 -0.35097
C 7.96860 -0.35574 -2.71011
N 7.41604 -0.58507 2.33644
C 7.52583 -1.87713 2.60638
C 7.27157 -2.24766 4.09218
C 6.36216 -0.98903 4.50166
C 6.87917 0.02705 3.48531
C 4.88035 -1.20867 4.24604
C 8.59655 -2.29619 4.93128
C 8.46199 -2.94951 6.30853
H 9.58286 -3.73385 6.81934
N 7.64370 2.37307 1.66166
C 7.17344 2.47499 2.92251
C 7.16600 3.91270 3.23414
C 7.51447 4.66266 1.99687
C 7.52087 3.58477 1.02826
C 6.92672 4.44423 4.61749
C 7.78329 6.11225 1.72739
O 7.83298 6.57736 0.53406
C 7.89384 6.98811 2.90303
N 7.50728 1.55012 -1.25576
C 7.39892 2.88208 -1.40435
C 7.39998 3.27001 -2.86377
C 7.77644 1.93662 -3.66247
C 7.84338 0.94424 -2.48090
C 6.08511 3.83223 -3.40361
C 8.98789 2.01498 -4.63145
C 10.26517 2.20833 -3.84624
N 8.12195 -1.17966 -0.41441
C 8.09937 -1.40416 -1.80839
C 8.18193 -2.86453 -2.01556
C 8.22395 -3.39393 -0.71693
C 8.15092 -2.33931 0.23277
C 8.16100 -3.52865 -3.27438
C 8.30275 -4.60582 0.06654
O 8.47178 -5.79705 -0.19065
C 7.98225 -4.24956 1.58204
C 9.02960 -4.90013 2.44363
O 10.21817 -4.54097 2.37342
O 8.42543 -5.68121 3.35755
C 9.42255 -6.33966 4.24300
H 6.12089 1.71900 4.59547
H 7.37404 4.71943 -0.73731
H 8.09720 -0.76145 -3.71586
H 6.72132 -3.16868 4.24291
H 6.57777 -0.65879 5.51448
H 4.69502 -2.13313 3.71957
H 4.55577 -0.36382 3.65281
H 4.32295 -1.14936 5.18526
H 8.86695 -1.27605 5.23286
H 9.38025 -2.77661 4.37845
H 7.52391 -3.50875 6.40958
H 8.38613 -2.16069 7.06088
H 6.53510 3.66675 5.28499
H 6.11299 5.17376 4.54341
H 7.80618 4.93718 5.03727
H 6.97379 6.93562 3.48027
H 8.17549 7.96778 2.51214
H 8.69282 6.60740 3.54904
H 8.15224 4.02330 -3.06314
H 6.95123 1.60155 -4.30790
H 6.19164 4.83855 -3.85088
H 5.36430 3.84898 -2.59697
H 5.58706 3.21048 -4.14562
H 8.89244 2.88360 -5.28761
H 9.09026 1.14136 -5.26651
H 10.28714 3.28838 -3.67281
H 11.12551 1.88449 -4.42847
H 10.20345 1.71849 -2.86751
H 8.92301 -4.29563 -3.23446
H 8.33727 -2.83425 -4.09323
H 7.13748 -3.91292 -3.27517
H 6.98142 -4.62322 1.80181
H 9.23810 -7.41690 4.18626
H 9.30571 -5.86007 5.23299
H 10.46460 -6.28779 3.94992

