%nproc=24
%mem=175gb
#p cam-b3lyp/Def2SVP td=(nstates=5)

TDDFT excited states in gaussian

0 1
Mg 0.00000 0.00000 0.00000
C -0.21700 -2.21800 2.80100
C -1.25500 2.44200 2.02600
C -0.24500 1.85000 -2.56400
C 0.14600 -2.82400 -2.03700
N -0.61700 -0.00900 2.12600
C -0.59400 -0.90800 3.10500
C -0.93600 -0.30900 4.50200
C -1.77300 0.96400 4.03200
C -1.15500 1.16800 2.66000
C -3.26300 0.68500 3.86300
C 0.34500 0.11000 5.29900
C 0.12400 0.39700 6.78700
H 1.16800 0.03300 7.73300
N -0.18500 1.96100 -0.15200
C -0.70300 2.80000 0.77700
C -0.62000 4.15600 0.19300
C -0.18700 4.01500 -1.22500
C -0.21400 2.58300 -1.38000
C -0.88700 5.40600 0.97400
C 0.18100 5.01300 -2.27700
O 0.30300 4.69000 -3.50800
C 0.31000 6.41400 -1.83700
N -0.26500 -0.41300 -2.02900
C -0.27900 0.56900 -2.93700
C -0.19600 0.02400 -4.33200
C 0.12400 -1.53300 -4.18000
C 0.08600 -1.63200 -2.63500
C -1.45100 0.20500 -5.19700
C 1.37300 -2.07000 -4.92300
C 2.62600 -1.49000 -4.30600
N 0.15000 -2.14400 0.30300
C 0.17300 -3.13600 -0.68800
C 0.17300 -4.43800 0.00400
C 0.13300 -4.11100 1.35800
C 0.08300 -2.69500 1.50200
C 0.14900 -5.71500 -0.62300
C 0.09600 -4.62900 2.71600
O 0.20800 -5.74700 3.22100
C -0.25500 -3.42800 3.70100
C 0.71700 -3.48200 4.84800
O 1.93100 -3.25500 4.66900
O 0.03800 -3.55600 6.00300
C 0.94300 -3.58300 7.18300
H -1.85900 3.22000 2.49700
H -0.21800 2.45300 -3.47400
H 0.27600 -3.74700 -2.60500
H -1.55400 -0.94900 5.13200
H -1.58500 1.83100 4.66500
H -3.48400 -0.37700 3.96900
H -3.51100 1.02700 2.85800
H -3.85200 1.30100 4.54300
H 0.66900 1.09600 4.96600
H 1.13000 -0.63900 5.18900
H -0.84400 0.02600 7.12500
H 0.06200 1.47700 6.92100
H -1.34400 5.18600 1.93800
H -1.65100 5.96300 0.43200
H 0.00700 6.02000 1.08400
H -0.63500 6.74400 -1.40500
H 0.66500 6.97000 -2.70400
H 1.04800 6.46600 -1.03600
H 0.60800 0.50100 -4.89100
H -0.69200 -2.15600 -4.54700
H -1.26700 0.74000 -6.12900
H -2.20400 0.71400 -4.59600
H -1.96700 -0.72000 -5.45300
H 1.35600 -1.75900 -5.96700
H 1.45200 -3.15700 -4.90200
H 2.71400 -0.52200 -4.79800
H 3.48700 -2.12100 -4.52900
H 2.49500 -1.30300 -3.24000
H 0.86700 -6.33300 -0.08400
H 0.40400 -5.64200 -1.68000
H -0.89100 -5.99900 -0.46300
H -1.28300 -3.58100 4.02800
H 0.69800 -4.47800 7.75500
H 0.83300 -2.61900 7.68000
H 2.00000 -3.75400 6.97600
Mg 8.93644 0.80702 0.66867
C 11.48544 -1.58954 -0.13017
C 11.23591 3.24351 0.02791
C 6.85975 2.92478 1.79556
C 7.23987 -1.75350 2.31519
N 11.05416 0.71373 0.03716
C 11.89846 -0.25106 -0.29553
C 13.23344 0.24666 -0.91170
C 13.25561 1.72195 -0.27775
C 11.75435 1.92901 -0.08795
C 13.92213 1.78073 1.08666
C 13.18662 0.29572 -2.47931
C 14.54642 0.47477 -3.15801
H 14.78305 -0.19997 -4.43128
N 8.85052 2.77506 0.42782
C 9.87647 3.60628 0.14892
C 9.29609 4.95689 0.09252
C 7.87400 4.87472 0.52337
C 7.81070 3.49491 0.96177
C 10.05548 6.14834 -0.41465
C 6.75938 5.87627 0.54991
O 5.66944 5.65400 1.18666
C 7.01802 7.16271 -0.11317
N 7.39490 0.66919 2.05683
C 6.61007 1.72733 2.32574
C 5.40608 1.32023 3.14125
C 5.41984 -0.27886 3.15885
C 6.73690 -0.52905 2.39193
C 5.36667 1.84440 4.57655
C 4.13269 -0.99913 2.67190
C 3.93871 -0.76439 1.19114
N 9.17682 -1.32903 0.88669
C 8.36735 -2.20583 1.64171
C 8.99462 -3.54179 1.57708
C 10.14703 -3.34309 0.80186
C 10.24268 -1.97545 0.42783
C 8.51908 -4.71634 2.22546
C 11.30998 -3.97720 0.22379
O 11.71260 -5.13628 0.13342
C 12.29523 -2.84501 -0.29948
C 12.73119 -3.21527 -1.69065
O 11.90886 -3.24801 -2.62302
O 14.07532 -3.25677 -1.73481
C 14.55617 -3.60916 -3.09732
H 11.93840 4.07620 0.07280
H 6.05795 3.59142 2.12142
H 6.72040 -2.62444 2.72054
H 14.11168 -0.30550 -0.59931
H 13.65475 2.44814 -0.98110
H 14.16651 0.79674 1.45839
H 13.21022 2.26639 1.74115
H 14.79594 2.43766 1.05135
H 12.69570 1.22564 -2.79394
H 12.69784 -0.57405 -2.87329
H 15.37890 0.29453 -2.46703
H 14.65673 1.52398 -3.44264
H 11.12762 5.93388 -0.50373
H 9.99623 6.91926 0.36126
H 9.64101 6.54823 -1.34253
H 7.88416 7.63633 0.34283
H 6.07480 7.71045 -0.06635
H 7.27904 6.97055 -1.15986
H 4.48973 1.65865 2.67341
H 5.56780 -0.67390 4.17466
H 4.45540 2.42968 4.80260
H 6.25339 2.44047 4.74672
H 5.44916 1.08181 5.34912
H 3.25393 -0.58219 3.16998
H 4.13592 -2.06674 2.86475
H 3.44824 0.21308 1.15841
H 3.30627 -1.53796 0.76026
H 4.90274 -0.66680 0.67852
H 8.60096 -5.52252 1.50862
H 7.49472 -4.59282 2.57073
H 9.22719 -4.78096 3.05592
H 13.13592 -2.79633 0.39366
H 15.20291 -4.48559 -2.99114
H 15.01839 -2.68771 -3.49860
H 13.82379 -3.97175 -3.80908

