%nproc=24
%mem=175gb
#p cam-b3lyp/Def2SVP td=(nstates=5)

TDDFT excited states in gaussian

0 1
Mg 31.52390 2.83934 2.40142
C 32.58057 5.21917 4.87101
C 31.09196 0.61227 4.94862
C 31.02280 0.59162 0.21874
C 33.09976 4.82771 0.01212
N 31.82944 3.01164 4.58528
C 32.17458 3.98342 5.41646
C 32.00243 3.63566 6.91946
C 32.09314 2.03621 6.80812
C 31.60879 1.86344 5.36999
C 33.51436 1.50615 6.90039
C 30.61195 4.09425 7.48362
C 30.49611 4.06649 9.00926
H 29.69940 5.09935 9.66571
N 30.65966 1.06032 2.56496
C 30.55390 0.30638 3.67926
C 29.85250 -0.92028 3.26999
C 29.69900 -0.90122 1.78986
C 30.49023 0.26659 1.45780
C 29.33171 -1.92681 4.25442
C 28.97225 -1.79454 0.83068
O 29.17028 -1.72753 -0.43388
C 28.09197 -2.81296 1.42179
N 32.17016 2.61092 0.43864
C 31.76339 1.56799 -0.30619
C 32.13030 1.75885 -1.75854
C 32.65660 3.26456 -1.87441
C 32.58355 3.67335 -0.38681
C 33.19147 0.80543 -2.30744
C 31.96297 4.17361 -2.92568
C 30.53177 4.43700 -2.51617
N 32.48153 4.77592 2.37596
C 33.09787 5.40828 1.27399
C 33.70810 6.65725 1.77412
C 33.42195 6.65343 3.14765
C 32.70284 5.47469 3.48375
C 34.45602 7.58670 0.99768
C 33.57390 7.37334 4.39157
O 34.01865 8.47586 4.70844
C 33.14565 6.41539 5.58543
C 32.22803 7.18698 6.49380
O 31.11199 7.56267 6.09388
O 32.72505 7.16530 7.74394
C 31.84402 7.90830 8.68392
H 31.14033 -0.22876 5.64087
H 30.78256 -0.09840 -0.59343
H 33.52425 5.55039 -0.68803
H 32.78857 4.00863 7.56495
H 31.40977 1.55263 7.50131
H 34.24222 2.30384 6.90713
H 33.65069 0.87693 6.03059
H 33.61545 0.84746 7.76770
H 29.85485 3.34315 7.22401
H 30.35618 5.07027 7.11951
H 31.47452 3.96899 9.49522
H 29.96078 3.15940 9.30018
H 29.73890 -1.75536 5.25851
H 29.73644 -2.90115 3.95991
H 28.24116 -1.98445 4.26086
H 28.67330 -3.45534 2.07896
H 27.59288 -3.29324 0.57791
H 27.34822 -2.31041 2.05019
H 31.26241 1.63995 -2.39552
H 33.71820 3.30432 -2.15947
H 32.84804 0.23044 -3.18807
H 33.49467 0.13772 -1.51198
H 34.13335 1.27435 -2.58705
H 31.92085 3.66881 -3.89396
H 32.46878 5.12117 -3.07824
H 30.00379 3.55058 -2.88027
H 30.15784 5.34190 -2.99090
H 30.43170 4.45515 -1.42470
H 34.12236 8.57419 1.28758
H 34.31790 7.41648 -0.06802
H 35.47029 7.34212 1.32436
H 34.05672 6.10027 6.09555
H 32.46432 8.66692 9.17118
H 31.38483 7.13975 9.33370
H 31.05818 8.52018 8.25669

