%nproc=24
%mem=175gb
#p cam-b3lyp/Def2SVP td=(nstates=5)

TDDFT excited states in gaussian

0 1
Mg 31.53941 2.84630 2.39230
C 30.91665 5.37251 4.86403
C 30.62885 5.13851 0.03620
C 31.64357 0.52246 0.23444
C 31.28908 0.48512 4.94335
N 30.87874 4.95102 2.55320
C 30.73920 5.82391 3.53958
C 30.46853 7.28042 3.07604
C 29.84198 6.96081 1.63238
C 30.51456 5.61562 1.36639
C 28.33805 6.74501 1.66342
C 31.78601 8.12420 2.95639
C 31.57265 9.63237 2.80928
H 32.53265 10.53570 3.43766
N 31.66541 2.93569 0.41374
C 31.26911 3.95122 -0.38182
C 31.55814 3.52028 -1.75838
C 32.00510 2.10127 -1.72159
C 31.76351 1.78484 -0.32818
C 31.47766 4.44844 -2.93544
C 32.54676 1.17760 -2.77023
O 32.64606 -0.08444 -2.56965
C 32.87003 1.78072 -4.07147
N 31.26643 0.78930 2.52112
C 31.41953 0.00264 1.44147
C 31.44657 -1.45658 1.82919
C 31.52267 -1.47536 3.42651
C 31.43252 0.04167 3.70200
C 30.25144 -2.28994 1.36706
C 32.69094 -2.27460 4.06608
C 34.00783 -1.59899 3.75829
N 31.35595 2.89531 4.54451
C 31.24054 1.79030 5.41613
C 31.02425 2.32829 6.77488
C 31.00569 3.71957 6.59459
C 31.17673 4.02637 5.21760
C 30.82790 1.55555 7.95405
C 30.86967 4.99810 7.25456
O 30.78975 5.36709 8.42554
C 30.67945 6.12128 6.14610
C 31.60626 7.25958 6.47443
O 32.83928 7.10387 6.42928
O 30.89137 8.39505 6.57448
C 31.76825 9.55456 6.88825
H 30.14656 5.70454 -0.76124
H 31.78324 -0.31523 -0.45276
H 31.29934 -0.18337 5.80689
H 29.75200 7.82372 3.68034
H 30.15413 7.69564 0.89485
H 27.95459 6.72545 2.67274
H 28.16712 5.79446 1.17527
H 27.83670 7.49554 1.04561
H 32.26392 7.90714 1.99243
H 32.43892 7.93076 3.78520
H 30.54634 9.92956 3.05690
H 31.68125 9.89696 1.75467
H 30.96305 5.38214 -2.67700
H 30.82287 3.97274 -3.67357
H 32.45160 4.63285 -3.39380
H 31.97861 2.24620 -4.48519
H 33.32671 0.98158 -4.65858
H 33.59960 2.58287 -3.91371
H 32.32598 -1.94664 1.42969
H 30.62532 -1.92950 3.87187
H 30.53993 -3.16302 0.75176
H 29.57695 -1.64509 0.81956
H 29.61424 -2.66602 2.16565
H 32.74696 -3.27596 3.63215
H 32.59557 -2.39394 5.14016
H 34.24983 -1.97365 2.75922
H 34.76587 -1.88922 4.48299
H 33.88435 -0.51245 3.68191
H 31.42339 2.01629 8.73097
H 31.10978 0.51608 7.79973
H 29.74907 1.67294 8.08677
H 29.63267 6.42695 6.16572
H 31.37174 10.01837 7.79673
H 31.78363 10.17407 5.97189
H 32.78896 9.34492 7.18599

