%nproc=24
%mem=175gb
#p cam-b3lyp/Def2SVP td=(nstates=5)

TDDFT excited states in gaussian

0 1
Mg 0.00000 0.00000 0.00000
C -0.21700 -2.21800 2.80100
C -1.25500 2.44200 2.02600
C -0.24500 1.85000 -2.56400
C 0.14600 -2.82400 -2.03700
N -0.61700 -0.00900 2.12600
C -0.59400 -0.90800 3.10500
C -0.93600 -0.30900 4.50200
C -1.77300 0.96400 4.03200
C -1.15500 1.16800 2.66000
C -3.26300 0.68500 3.86300
C 0.34500 0.11000 5.29900
C 0.12400 0.39700 6.78700
H 1.16800 0.03300 7.73300
N -0.18500 1.96100 -0.15200
C -0.70300 2.80000 0.77700
C -0.62000 4.15600 0.19300
C -0.18700 4.01500 -1.22500
C -0.21400 2.58300 -1.38000
C -0.88700 5.40600 0.97400
C 0.18100 5.01300 -2.27700
O 0.30300 4.69000 -3.50800
C 0.31000 6.41400 -1.83700
N -0.26500 -0.41300 -2.02900
C -0.27900 0.56900 -2.93700
C -0.19600 0.02400 -4.33200
C 0.12400 -1.53300 -4.18000
C 0.08600 -1.63200 -2.63500
C -1.45100 0.20500 -5.19700
C 1.37300 -2.07000 -4.92300
C 2.62600 -1.49000 -4.30600
N 0.15000 -2.14400 0.30300
C 0.17300 -3.13600 -0.68800
C 0.17300 -4.43800 0.00400
C 0.13300 -4.11100 1.35800
C 0.08300 -2.69500 1.50200
C 0.14900 -5.71500 -0.62300
C 0.09600 -4.62900 2.71600
O 0.20800 -5.74700 3.22100
C -0.25500 -3.42800 3.70100
C 0.71700 -3.48200 4.84800
O 1.93100 -3.25500 4.66900
O 0.03800 -3.55600 6.00300
C 0.94300 -3.58300 7.18300
H -1.85900 3.22000 2.49700
H -0.21800 2.45300 -3.47400
H 0.27600 -3.74700 -2.60500
H -1.55400 -0.94900 5.13200
H -1.58500 1.83100 4.66500
H -3.48400 -0.37700 3.96900
H -3.51100 1.02700 2.85800
H -3.85200 1.30100 4.54300
H 0.66900 1.09600 4.96600
H 1.13000 -0.63900 5.18900
H -0.84400 0.02600 7.12500
H 0.06200 1.47700 6.92100
H -1.34400 5.18600 1.93800
H -1.65100 5.96300 0.43200
H 0.00700 6.02000 1.08400
H -0.63500 6.74400 -1.40500
H 0.66500 6.97000 -2.70400
H 1.04800 6.46600 -1.03600
H 0.60800 0.50100 -4.89100
H -0.69200 -2.15600 -4.54700
H -1.26700 0.74000 -6.12900
H -2.20400 0.71400 -4.59600
H -1.96700 -0.72000 -5.45300
H 1.35600 -1.75900 -5.96700
H 1.45200 -3.15700 -4.90200
H 2.71400 -0.52200 -4.79800
H 3.48700 -2.12100 -4.52900
H 2.49500 -1.30300 -3.24000
H 0.86700 -6.33300 -0.08400
H 0.40400 -5.64200 -1.68000
H -0.89100 -5.99900 -0.46300
H -1.28300 -3.58100 4.02800
H 0.69800 -4.47800 7.75500
H 0.83300 -2.61900 7.68000
H 2.00000 -3.75400 6.97600
Mg 31.53952 2.84580 2.39146
C 30.91627 5.66824 4.51854
C 30.67783 4.83142 -0.24471
C 31.64294 0.26817 0.54414
C 31.23764 0.82654 5.21585
N 30.89880 4.95980 2.27870
C 30.75766 5.95102 3.14583
C 30.50695 7.33999 2.49973
C 29.89265 6.84689 1.10032
C 30.55421 5.47304 1.01352
C 28.38634 6.65001 1.14030
C 31.83422 8.15034 2.29072
C 31.63794 9.62986 1.95271
H 32.60038 10.59654 2.47398
N 31.68763 2.68450 0.41900
C 31.31032 3.59537 -0.50254
C 31.60964 2.99217 -1.81049
C 32.04159 1.58517 -1.59034
C 31.78186 1.44866 -0.17119
C 31.55131 3.76559 -3.09573
C 32.58495 0.53219 -2.50805
O 32.66913 -0.69543 -2.14930
C 32.92831 0.96397 -3.87083
N 31.24407 0.82383 2.77450
C 31.40066 -0.09370 1.80417
C 31.40856 -1.49275 2.37249
C 31.46734 -1.31114 3.96030
C 31.38982 0.22923 4.04187
C 30.20996 -2.36702 2.00454
C 32.62042 -2.03388 4.70912
C 33.94740 -1.41401 4.33459
N 31.33352 3.16674 4.51811
C 31.19744 2.18120 5.52024
C 30.97213 2.88771 6.79794
C 30.96979 4.24537 6.44404
C 31.15872 4.37501 5.04154
C 30.75523 2.27118 8.06244
C 30.83984 5.59791 6.93643
O 30.75116 6.11195 8.05072
C 30.67304 6.57438 5.69343
C 31.60792 7.73671 5.88712
O 32.83969 7.56566 5.87660
O 30.90369 8.88202 5.83516
C 31.78901 10.06399 6.01115
H 30.20996 5.29689 -1.11265
H 31.78136 -0.65050 -0.03062
H 31.23179 0.27191 6.15661
H 29.78959 7.96129 3.02238
H 30.22022 7.48033 0.28006
H 27.99191 6.76094 2.13944
H 28.21091 5.64716 0.77348
H 27.89937 7.32127 0.42714
H 32.32019 7.80955 1.36744
H 32.47620 8.05692 3.14498
H 30.61215 9.96490 2.14876
H 31.76055 9.75874 0.87457
H 31.04357 4.72889 -2.96283
H 30.89962 3.20663 -3.77598
H 32.53195 3.88227 -3.56199
H 32.04621 1.38158 -4.35036
H 33.38304 0.09333 -4.34737
H 33.66435 1.77312 -3.80644
H 32.28711 -2.03691 2.04826
H 30.56065 -1.69771 4.44847
H 30.49605 -3.31307 1.50732
H 29.54802 -1.79022 1.37234
H 29.56041 -2.63402 2.83640
H 32.67081 -3.08232 4.40517
H 32.51233 -2.01633 5.78847
H 34.19623 -1.91349 3.39348
H 34.69461 -1.61747 5.09900
H 33.83590 -0.34466 4.12080
H 31.34706 2.82070 8.78235
H 31.02807 1.21811 8.04335
H 29.67631 2.41386 8.16649
H 29.62930 6.88933 5.66199
H 31.38757 10.64187 6.84936
H 31.82057 10.56316 5.02445
H 32.80427 9.88446 6.34503

