%nproc=24
%mem=175gb
#p cam-b3lyp/Def2SVP td=(nstates=5)

TDDFT excited states in gaussian

0 1
Mg 15.77374 1.41357 1.20242
C 15.98804 -1.37579 -1.04538
C 14.90548 -0.80887 3.63994
C 15.13900 3.88368 3.09003
C 15.53189 3.47375 -1.59809
N 15.51437 -0.78288 1.17794
C 15.68291 -1.74346 0.28170
C 15.59402 -3.18252 0.85682
C 14.70213 -2.86811 2.15472
C 15.08562 -1.40494 2.36623
C 13.20749 -2.93651 1.88882
C 17.00007 -3.75644 1.25135
C 17.02571 -5.26115 1.52871
H 18.21237 -6.01986 1.14313
N 15.59887 1.50939 3.17696
C 15.26035 0.50598 4.01353
C 15.25071 1.09281 5.36250
C 15.45002 2.56218 5.23627
C 15.38140 2.71480 3.79679
C 15.14424 0.26410 6.60963
C 15.65416 3.65168 6.24499
O 15.56786 4.88994 5.92547
C 15.86552 3.22584 7.63620
N 15.17884 3.36768 0.81528
C 15.02343 4.25385 1.81452
C 14.86290 5.65679 1.27937
C 15.18612 5.55992 -0.28387
C 15.39988 4.03504 -0.40407
C 13.48570 6.29015 1.47574
C 16.28765 6.50640 -0.83475
C 17.63481 6.11232 -0.27329
N 15.94369 1.15753 -0.93618
C 15.78129 2.14808 -1.92942
C 15.87706 1.47124 -3.23906
C 16.06706 0.11963 -2.91419
C 16.06802 -0.03789 -1.50186
C 15.74101 2.09651 -4.51053
C 16.25641 -1.21121 -3.44495
O 16.42643 -1.68216 -4.56879
C 16.08720 -2.25673 -2.25977
C 17.23411 -3.22743 -2.32941
O 18.39985 -2.84393 -2.12790
O 16.74760 -4.47954 -2.40620
C 17.84725 -5.47904 -2.46626
H 14.40660 -1.38766 4.41776
H 15.02386 4.78559 3.69565
H 15.56466 4.06054 -2.51857
H 15.08491 -3.89570 0.21968
H 15.01416 -3.47064 3.00381
H 12.99066 -3.06974 0.83936
H 12.80249 -1.99743 2.24259
H 12.74981 -3.71409 2.50708
H 17.27572 -3.37769 2.24398
H 17.73323 -3.51367 0.50691
H 16.11708 -5.76151 1.17237
H 17.00969 -5.41494 2.61043
H 14.84327 -0.76627 6.38344
H 14.30983 0.66908 7.19239
H 16.05052 0.30012 7.21793
H 15.01222 2.63903 7.96786
H 16.08111 4.14032 8.19219
H 16.73648 2.56184 7.67035
H 15.57184 6.33127 1.74366
H 14.30642 5.80327 -0.89768
H 13.52065 7.24834 2.02778
H 12.85275 5.57848 1.98899
H 12.92814 6.47641 0.55943
H 16.10333 7.53270 -0.50782
H 16.34431 6.51877 -1.91809
H 17.64864 6.60480 0.70363
H 18.43731 6.47770 -0.91089
H 17.68736 5.03145 -0.09833
H 16.52133 1.69211 -5.14145
H 15.81408 3.17916 -4.43104
H 14.73257 1.77190 -4.78061
H 15.12407 -2.75071 -2.39371
H 17.68397 -6.07999 -3.36620
H 17.82274 -6.00886 -1.49547
H 18.85149 -5.10962 -2.63796

