%nproc=24
%mem=175gb
#p cam-b3lyp/Def2SVP td=(nstates=5)

TDDFT excited states in gaussian

0 1
Mg 10.51755 0.95431 0.79677
C 9.90810 2.96107 3.70890
C 9.53511 3.63352 -1.07171
C 10.61170 -0.92091 -1.76099
C 10.34383 -1.84769 2.86181
N 9.83331 2.98059 1.36091
C 9.70077 3.65034 2.49590
C 9.40324 5.16351 2.31884
C 8.75451 5.11084 0.85076
C 9.43912 3.85040 0.32609
C 7.25425 4.86919 0.86407
C 10.70752 6.03555 2.33953
C 10.47241 7.54093 2.48203
H 11.43221 8.32529 3.25406
N 10.60623 1.41573 -1.13139
C 10.18262 2.55619 -1.71548
C 10.45188 2.39613 -3.15286
C 10.91739 1.00275 -3.39057
C 10.70534 0.42643 -2.07795
C 10.33815 3.52745 -4.13295
C 11.45146 0.30120 -4.60251
O 11.57039 -0.97431 -4.64444
C 11.74322 1.14305 -5.77198
N 10.27306 -1.09435 0.54066
C 10.41637 -1.66168 -0.66993
C 10.46898 -3.16714 -0.56403
C 10.57449 -3.48440 0.99987
C 10.47017 -2.04774 1.55713
C 9.27626 -3.91774 -1.15599
C 11.76428 -4.37088 1.45944
C 13.06666 -3.62866 1.26375
N 10.37285 0.59528 2.92238
C 10.28740 -0.65547 3.57231
C 10.08917 -0.38577 5.01120
C 10.04969 1.01413 5.09611
C 10.19164 1.57679 3.79889
C 9.92421 -1.36926 6.02690
C 9.90957 2.14362 5.98679
O 9.84639 2.28478 7.20737
C 9.68490 3.45184 5.11245
C 10.60306 4.52279 5.63454
O 11.83692 4.39793 5.54171
O 9.87579 5.60776 5.95747
C 10.74349 6.70147 6.47002
H 9.03120 4.33151 -1.74086
H 10.74940 -1.61229 -2.59556
H 10.37834 -2.66622 3.58394
H 8.69104 5.57218 3.02561
H 9.04380 5.97598 0.25982
H 6.88959 4.65431 1.85754
H 7.08650 4.02466 0.20858
H 6.73223 5.71434 0.40632
H 11.17045 6.01104 1.34462
H 11.37787 5.70028 3.10689
H 9.44711 7.76999 2.79706
H 10.55835 8.00059 1.49443
H 9.81656 4.38770 -3.69554
H 9.67607 3.18853 -4.93709
H 11.30114 3.81012 -4.56356
H 10.83857 1.66374 -6.07684
H 12.19919 0.47577 -6.50594
H 12.46533 1.91278 -5.47755
H 11.34707 -3.55941 -1.06221
H 9.69125 -4.02830 1.36579
H 9.56450 -4.65501 -1.92892
H 8.58375 -3.19233 -1.56187
H 8.65858 -4.44719 -0.43256
H 11.82505 -5.27190 0.84411
H 11.69008 -4.69134 2.49327
H 13.29509 -3.80511 0.20840
H 13.84143 -4.03777 1.90905
H 12.92804 -2.54921 1.39501
H 10.52791 -1.05325 6.86725
H 10.21638 -2.35663 5.67547
H 8.84659 -1.29604 6.19611
H 8.63486 3.73172 5.20550
H 10.35780 6.98003 7.45558
H 10.73426 7.48224 5.68640
H 11.77204 6.45588 6.70710

