%nproc=24
%mem=175gb
#p cam-b3lyp/Def2SVP td=(nstates=5)

TDDFT excited states in gaussian

0 1
Mg 0.00000 0.00000 0.00000
C -0.21700 -2.21800 2.80100
C -1.25500 2.44200 2.02600
C -0.24500 1.85000 -2.56400
C 0.14600 -2.82400 -2.03700
N -0.61700 -0.00900 2.12600
C -0.59400 -0.90800 3.10500
C -0.93600 -0.30900 4.50200
C -1.77300 0.96400 4.03200
C -1.15500 1.16800 2.66000
C -3.26300 0.68500 3.86300
C 0.34500 0.11000 5.29900
C 0.12400 0.39700 6.78700
H 1.16800 0.03300 7.73300
N -0.18500 1.96100 -0.15200
C -0.70300 2.80000 0.77700
C -0.62000 4.15600 0.19300
C -0.18700 4.01500 -1.22500
C -0.21400 2.58300 -1.38000
C -0.88700 5.40600 0.97400
C 0.18100 5.01300 -2.27700
O 0.30300 4.69000 -3.50800
C 0.31000 6.41400 -1.83700
N -0.26500 -0.41300 -2.02900
C -0.27900 0.56900 -2.93700
C -0.19600 0.02400 -4.33200
C 0.12400 -1.53300 -4.18000
C 0.08600 -1.63200 -2.63500
C -1.45100 0.20500 -5.19700
C 1.37300 -2.07000 -4.92300
C 2.62600 -1.49000 -4.30600
N 0.15000 -2.14400 0.30300
C 0.17300 -3.13600 -0.68800
C 0.17300 -4.43800 0.00400
C 0.13300 -4.11100 1.35800
C 0.08300 -2.69500 1.50200
C 0.14900 -5.71500 -0.62300
C 0.09600 -4.62900 2.71600
O 0.20800 -5.74700 3.22100
C -0.25500 -3.42800 3.70100
C 0.71700 -3.48200 4.84800
O 1.93100 -3.25500 4.66900
O 0.03800 -3.55600 6.00300
C 0.94300 -3.58300 7.18300
H -1.85900 3.22000 2.49700
H -0.21800 2.45300 -3.47400
H 0.27600 -3.74700 -2.60500
H -1.55400 -0.94900 5.13200
H -1.58500 1.83100 4.66500
H -3.48400 -0.37700 3.96900
H -3.51100 1.02700 2.85800
H -3.85200 1.30100 4.54300
H 0.66900 1.09600 4.96600
H 1.13000 -0.63900 5.18900
H -0.84400 0.02600 7.12500
H 0.06200 1.47700 6.92100
H -1.34400 5.18600 1.93800
H -1.65100 5.96300 0.43200
H 0.00700 6.02000 1.08400
H -0.63500 6.74400 -1.40500
H 0.66500 6.97000 -2.70400
H 1.04800 6.46600 -1.03600
H 0.60800 0.50100 -4.89100
H -0.69200 -2.15600 -4.54700
H -1.26700 0.74000 -6.12900
H -2.20400 0.71400 -4.59600
H -1.96700 -0.72000 -5.45300
H 1.35600 -1.75900 -5.96700
H 1.45200 -3.15700 -4.90200
H 2.71400 -0.52200 -4.79800
H 3.48700 -2.12100 -4.52900
H 2.49500 -1.30300 -3.24000
H 0.86700 -6.33300 -0.08400
H 0.40400 -5.64200 -1.68000
H -0.89100 -5.99900 -0.46300
H -1.28300 -3.58100 4.02800
H 0.69800 -4.47800 7.75500
H 0.83300 -2.61900 7.68000
H 2.00000 -3.75400 6.97600
Mg 10.51454 0.95115 0.80710
C 9.52266 -1.36230 3.36506
C 8.60220 3.29039 2.38998
C 11.00378 2.87943 -1.66471
C 11.38620 -1.79900 -1.14805
N 9.27101 0.85602 2.63380
C 9.01916 -0.05893 3.55780
C 8.24796 0.47242 4.79573
C 7.54145 1.74221 4.11209
C 8.54710 2.00888 2.99395
C 6.19900 1.41566 3.47923
C 9.20899 0.90628 5.95770
C 8.52309 1.14294 7.30503
H 9.24171 0.78384 8.52449
N 10.30964 2.91912 0.65325
C 9.50622 3.71375 1.39105
C 9.70442 5.07691 0.87465
C 10.56597 4.99912 -0.33630
C 10.64450 3.56280 -0.51211
C 9.16760 6.29558 1.56753
C 11.20203 6.04471 -1.20137
O 11.71311 5.75622 -2.34085
C 11.12596 7.43095 -0.71759
N 10.90927 0.59470 -1.20275
C 11.13342 1.61101 -2.05409
C 11.66516 1.10873 -3.37521
C 11.98129 -0.44258 -3.14926
C 11.47165 -0.59614 -1.69940
C 10.72892 1.26787 -4.57293
C 13.42044 -0.92325 -3.48167
C 14.40446 -0.32002 -2.50534
N 10.64887 -1.18529 1.09969
C 11.01026 -2.15655 0.14044
C 10.84485 -3.47950 0.77673
C 10.37298 -3.18468 2.06472
C 10.23357 -1.77828 2.21340
C 11.07406 -4.73768 0.15178
C 9.95100 -3.74395 3.32878
O 9.93761 -4.87272 3.81809
C 9.26139 -2.59559 4.18442
C 9.83176 -2.64652 5.57531
O 11.03165 -2.38862 5.77623
O 8.82599 -2.77690 6.45950
C 9.34074 -2.82092 7.85411
H 7.85579 4.03166 2.67683
H 11.28967 3.50461 -2.51376
H 11.73036 -2.70097 -1.65861
H 7.49798 -0.20373 5.18834
H 7.49876 2.58607 4.79578
H 5.99555 0.35517 3.49056
H 6.25743 1.77884 2.46152
H 5.40484 1.99371 3.96038
H 9.58069 1.91907 5.75563
H 10.00597 0.19837 6.07736
H 7.50427 0.73734 7.32577
H 8.38616 2.21854 7.44052
H 8.43573 6.02942 2.34014
H 8.58802 6.85583 0.82586
H 9.95772 6.94000 1.95882
H 10.08332 7.71235 -0.59042
H 11.71290 8.01997 -1.42501
H 11.58874 7.48122 0.27433
H 12.58246 1.61907 -3.64207
H 11.34407 -1.08376 -3.77591
H 11.17629 1.84700 -5.40271
H 9.81502 1.73593 -4.23197
H 10.36503 0.33570 -5.00170
H 13.71587 -0.57575 -4.47471
H 13.52807 -2.00275 -3.47301
H 14.59762 0.66985 -2.92952
H 15.31440 -0.91512 -2.46162
H 13.94314 -0.17293 -1.52188
H 11.60831 -5.34814 0.86760
H 11.63529 -4.62560 -0.77356
H 10.04395 -5.05623 -0.02893
H 8.18663 -2.78103 4.17564
H 8.96143 -3.74280 8.30572
H 9.02782 -1.86680 8.31831
H 10.40894 -2.94256 7.99047

