%nproc=24
%mem=175gb
#p cam-b3lyp/Def2SVP td=(nstates=5)

TDDFT excited states in gaussian

0 1
Mg 0.00000 0.00000 0.00000
C -0.21700 -2.21800 2.80100
C -1.25500 2.44200 2.02600
C -0.24500 1.85000 -2.56400
C 0.14600 -2.82400 -2.03700
N -0.61700 -0.00900 2.12600
C -0.59400 -0.90800 3.10500
C -0.93600 -0.30900 4.50200
C -1.77300 0.96400 4.03200
C -1.15500 1.16800 2.66000
C -3.26300 0.68500 3.86300
C 0.34500 0.11000 5.29900
C 0.12400 0.39700 6.78700
H 1.16800 0.03300 7.73300
N -0.18500 1.96100 -0.15200
C -0.70300 2.80000 0.77700
C -0.62000 4.15600 0.19300
C -0.18700 4.01500 -1.22500
C -0.21400 2.58300 -1.38000
C -0.88700 5.40600 0.97400
C 0.18100 5.01300 -2.27700
O 0.30300 4.69000 -3.50800
C 0.31000 6.41400 -1.83700
N -0.26500 -0.41300 -2.02900
C -0.27900 0.56900 -2.93700
C -0.19600 0.02400 -4.33200
C 0.12400 -1.53300 -4.18000
C 0.08600 -1.63200 -2.63500
C -1.45100 0.20500 -5.19700
C 1.37300 -2.07000 -4.92300
C 2.62600 -1.49000 -4.30600
N 0.15000 -2.14400 0.30300
C 0.17300 -3.13600 -0.68800
C 0.17300 -4.43800 0.00400
C 0.13300 -4.11100 1.35800
C 0.08300 -2.69500 1.50200
C 0.14900 -5.71500 -0.62300
C 0.09600 -4.62900 2.71600
O 0.20800 -5.74700 3.22100
C -0.25500 -3.42800 3.70100
C 0.71700 -3.48200 4.84800
O 1.93100 -3.25500 4.66900
O 0.03800 -3.55600 6.00300
C 0.94300 -3.58300 7.18300
H -1.85900 3.22000 2.49700
H -0.21800 2.45300 -3.47400
H 0.27600 -3.74700 -2.60500
H -1.55400 -0.94900 5.13200
H -1.58500 1.83100 4.66500
H -3.48400 -0.37700 3.96900
H -3.51100 1.02700 2.85800
H -3.85200 1.30100 4.54300
H 0.66900 1.09600 4.96600
H 1.13000 -0.63900 5.18900
H -0.84400 0.02600 7.12500
H 0.06200 1.47700 6.92100
H -1.34400 5.18600 1.93800
H -1.65100 5.96300 0.43200
H 0.00700 6.02000 1.08400
H -0.63500 6.74400 -1.40500
H 0.66500 6.97000 -2.70400
H 1.04800 6.46600 -1.03600
H 0.60800 0.50100 -4.89100
H -0.69200 -2.15600 -4.54700
H -1.26700 0.74000 -6.12900
H -2.20400 0.71400 -4.59600
H -1.96700 -0.72000 -5.45300
H 1.35600 -1.75900 -5.96700
H 1.45200 -3.15700 -4.90200
H 2.71400 -0.52200 -4.79800
H 3.48700 -2.12100 -4.52900
H 2.49500 -1.30300 -3.24000
H 0.86700 -6.33300 -0.08400
H 0.40400 -5.64200 -1.68000
H -0.89100 -5.99900 -0.46300
H -1.28300 -3.58100 4.02800
H 0.69800 -4.47800 7.75500
H 0.83300 -2.61900 7.68000
H 2.00000 -3.75400 6.97600
Mg 13.14688 1.18763 1.00255
C 13.73925 -0.96897 3.80918
C 12.65278 3.71507 3.23918
C 12.18080 3.00333 -1.41352
C 12.56199 -1.67520 -0.89686
N 13.21531 1.24207 3.21266
C 13.51122 0.37547 4.16963
C 13.64478 1.00025 5.58433
C 12.73509 2.30417 5.35821
C 12.90069 2.45880 3.84780
C 11.26336 2.07021 5.65587
C 15.12590 1.38607 5.92995
C 15.37811 1.71327 7.40341
H 16.65831 1.33009 7.99224
N 12.98842 3.16090 0.86227
C 12.81440 4.03722 1.87373
C 12.73754 5.36564 1.24639
C 12.71520 5.18621 -0.23078
C 12.60386 3.74405 -0.31949
C 12.77308 6.64176 2.03612
C 12.77036 6.15354 -1.37421
O 12.49701 5.79436 -2.57383
C 13.06263 7.55385 -1.03476
N 12.26360 0.74685 -0.82717
C 11.99318 1.71862 -1.71625
C 11.61891 1.13991 -3.05991
C 11.93019 -0.42526 -2.95534
C 12.36565 -0.49834 -1.47533
C 10.16610 1.34198 -3.48990
C 12.87130 -1.02921 -4.03340
C 14.26998 -0.48147 -3.86288
N 13.32182 -0.94409 1.30784
C 13.00012 -1.96665 0.38862
C 13.17605 -3.25445 1.09081
C 13.56881 -2.88815 2.38698
C 13.61358 -1.47162 2.49150
C 12.93046 -4.54328 0.53881
C 13.94544 -3.37753 3.69365
O 14.16700 -4.48805 4.17468
C 13.95014 -2.15479 4.70917
C 15.22703 -2.21436 5.50197
O 16.32591 -2.04884 4.94370
O 14.93024 -2.23944 6.81409
C 16.16479 -2.28754 7.64198
H 12.25645 4.52157 3.85673
H 11.94216 3.58045 -2.30988
H 12.49414 -2.61534 -1.44842
H 13.23770 0.39758 6.38736
H 13.14520 3.16671 5.87704
H 11.05344 1.03029 5.85746
H 10.72893 2.40013 4.77462
H 10.93490 2.72313 6.46959
H 15.35679 2.35979 5.47907
H 15.80413 0.61960 5.60878
H 14.54852 1.39191 8.04486
H 15.40074 2.79965 7.51869
H 12.62476 6.45629 3.10710
H 11.89644 7.22691 1.73783
H 13.67276 7.23054 1.84486
H 12.31054 7.92177 -0.34089
H 13.14845 8.07444 -1.99052
H 14.02271 7.59312 -0.50815
H 12.22682 1.56723 -3.84791
H 11.01535 -1.02945 -3.04394
H 10.06677 1.86071 -4.46208
H 9.65304 1.89122 -2.71167
H 9.57387 0.43108 -3.55865
H 12.54179 -0.73339 -5.03243
H 12.90978 -2.11327 -4.01484
H 14.22490 0.47789 -4.38699
H 15.00018 -1.14667 -4.31934
H 14.48454 -0.27136 -2.80862
H 13.75283 -5.17550 0.84624
H 12.84355 -4.50166 -0.54493
H 11.97741 -4.78239 1.01816
H 13.06895 -2.25306 5.34432
H 16.07927 -3.16338 8.29256
H 16.23311 -1.29920 8.13419
H 17.10065 -2.49129 7.13493

