%nproc=24
%mem=175gb
#p cam-b3lyp/Def2SVP td=(nstates=5)

TDDFT excited states in gaussian

0 1
Mg 0.00000 0.00000 0.00000
C -0.21700 -2.21800 2.80100
C -1.25500 2.44200 2.02600
C -0.24500 1.85000 -2.56400
C 0.14600 -2.82400 -2.03700
N -0.61700 -0.00900 2.12600
C -0.59400 -0.90800 3.10500
C -0.93600 -0.30900 4.50200
C -1.77300 0.96400 4.03200
C -1.15500 1.16800 2.66000
C -3.26300 0.68500 3.86300
C 0.34500 0.11000 5.29900
C 0.12400 0.39700 6.78700
H 1.16800 0.03300 7.73300
N -0.18500 1.96100 -0.15200
C -0.70300 2.80000 0.77700
C -0.62000 4.15600 0.19300
C -0.18700 4.01500 -1.22500
C -0.21400 2.58300 -1.38000
C -0.88700 5.40600 0.97400
C 0.18100 5.01300 -2.27700
O 0.30300 4.69000 -3.50800
C 0.31000 6.41400 -1.83700
N -0.26500 -0.41300 -2.02900
C -0.27900 0.56900 -2.93700
C -0.19600 0.02400 -4.33200
C 0.12400 -1.53300 -4.18000
C 0.08600 -1.63200 -2.63500
C -1.45100 0.20500 -5.19700
C 1.37300 -2.07000 -4.92300
C 2.62600 -1.49000 -4.30600
N 0.15000 -2.14400 0.30300
C 0.17300 -3.13600 -0.68800
C 0.17300 -4.43800 0.00400
C 0.13300 -4.11100 1.35800
C 0.08300 -2.69500 1.50200
C 0.14900 -5.71500 -0.62300
C 0.09600 -4.62900 2.71600
O 0.20800 -5.74700 3.22100
C -0.25500 -3.42800 3.70100
C 0.71700 -3.48200 4.84800
O 1.93100 -3.25500 4.66900
O 0.03800 -3.55600 6.00300
C 0.94300 -3.58300 7.18300
H -1.85900 3.22000 2.49700
H -0.21800 2.45300 -3.47400
H 0.27600 -3.74700 -2.60500
H -1.55400 -0.94900 5.13200
H -1.58500 1.83100 4.66500
H -3.48400 -0.37700 3.96900
H -3.51100 1.02700 2.85800
H -3.85200 1.30100 4.54300
H 0.66900 1.09600 4.96600
H 1.13000 -0.63900 5.18900
H -0.84400 0.02600 7.12500
H 0.06200 1.47700 6.92100
H -1.34400 5.18600 1.93800
H -1.65100 5.96300 0.43200
H 0.00700 6.02000 1.08400
H -0.63500 6.74400 -1.40500
H 0.66500 6.97000 -2.70400
H 1.04800 6.46600 -1.03600
H 0.60800 0.50100 -4.89100
H -0.69200 -2.15600 -4.54700
H -1.26700 0.74000 -6.12900
H -2.20400 0.71400 -4.59600
H -1.96700 -0.72000 -5.45300
H 1.35600 -1.75900 -5.96700
H 1.45200 -3.15700 -4.90200
H 2.71400 -0.52200 -4.79800
H 3.48700 -2.12100 -4.52900
H 2.49500 -1.30300 -3.24000
H 0.86700 -6.33300 -0.08400
H 0.40400 -5.64200 -1.68000
H -0.89100 -5.99900 -0.46300
H -1.28300 -3.58100 4.02800
H 0.69800 -4.47800 7.75500
H 0.83300 -2.61900 7.68000
H 2.00000 -3.75400 6.97600
Mg 8.93683 0.79759 0.68643
C 6.26953 1.38242 3.01507
C 11.09407 1.77415 3.14148
C 11.26495 0.72567 -1.46812
C 6.56568 0.97691 -1.86135
N 8.60417 1.46811 2.76778
C 7.55223 1.59167 3.56308
C 7.89914 1.88176 5.04803
C 9.34905 2.53765 4.83255
C 9.72965 1.86240 3.51655
C 9.30227 4.03913 4.60292
C 7.98308 0.57267 5.90898
C 8.01186 0.79889 7.42217
H 7.33797 -0.16879 8.28354
N 10.90531 0.71544 0.92496
C 11.61367 1.13555 1.99407
C 13.02457 0.87392 1.66992
C 13.10406 0.41714 0.25579
C 11.73354 0.62617 -0.16618
C 14.12657 0.98607 2.68305
C 14.23045 -0.10741 -0.58225
O 14.12744 -0.21917 -1.85493
C 15.48928 -0.39827 0.11934
N 8.95716 1.05445 -1.37656
C 10.09590 0.91993 -2.07878
C 9.81959 0.87504 -3.56271
C 8.23018 0.76392 -3.70061
C 7.83961 0.85779 -2.20929
C 10.31747 2.07459 -4.36867
C 7.67753 -0.42316 -4.53612
C 7.96167 -1.72864 -3.82875
N 6.78360 0.93428 0.57243
C 5.99523 1.02350 -0.59572
C 4.59559 1.21351 -0.16290
C 4.67037 1.24495 1.23778
C 6.02375 1.10601 1.64835
C 3.47391 1.37907 -1.02345
C 3.91344 1.37473 2.46208
O 2.71661 1.43141 2.74156
C 4.93005 1.59635 3.66365
C 4.53694 0.66992 4.78155
O 4.61993 -0.56279 4.63960
O 4.33663 1.38974 5.90053
C 3.95537 0.51369 7.04027
H 11.83625 2.27738 3.76180
H 12.01597 0.59567 -2.25077
H 5.75523 0.94348 -2.59261
H 7.24058 2.58840 5.53868
H 10.03576 2.24642 5.62310
H 8.28933 4.40030 4.50463
H 9.85672 4.21456 3.69031
H 9.85110 4.55868 5.39360
H 8.97060 0.11455 5.76868
H 7.18526 -0.09943 5.65920
H 7.72080 1.82143 7.69169
H 9.04568 0.71507 7.76597
H 13.78779 1.50090 3.59057
H 14.88424 1.65376 2.25879
H 14.59043 0.02358 2.90916
H 15.84776 0.50495 0.60735
H 16.14439 -0.84714 -0.62981
H 15.28727 -1.12594 0.91326
H 10.27344 0.00144 -4.01433
H 7.80119 1.64839 -4.19408
H 11.00265 1.79401 -5.19079
H 10.80047 2.76503 -3.69003
H 9.53600 2.69176 -4.80869
H 8.18658 -0.47612 -5.50164
H 6.61367 -0.35205 -4.73644
H 8.99101 -1.95115 -4.12547
H 7.27715 -2.50418 -4.16640
H 7.95354 -1.59652 -2.74057
H 2.67742 0.76971 -0.61750
H 3.71188 1.09394 -2.04612
H 3.30978 2.45547 -0.92504
H 4.86522 2.64440 3.95855
H 3.00636 0.89323 7.43143
H 4.82270 0.52233 7.72686
H 3.69604 -0.51461 6.81712

