%nproc=24
%mem=175gb
#p cam-b3lyp/Def2SVP td=(nstates=5)

TDDFT excited states in gaussian

0 1
Mg 0.00000 0.00000 0.00000
C -0.21700 -2.21800 2.80100
C -1.25500 2.44200 2.02600
C -0.24500 1.85000 -2.56400
C 0.14600 -2.82400 -2.03700
N -0.61700 -0.00900 2.12600
C -0.59400 -0.90800 3.10500
C -0.93600 -0.30900 4.50200
C -1.77300 0.96400 4.03200
C -1.15500 1.16800 2.66000
C -3.26300 0.68500 3.86300
C 0.34500 0.11000 5.29900
C 0.12400 0.39700 6.78700
H 1.16800 0.03300 7.73300
N -0.18500 1.96100 -0.15200
C -0.70300 2.80000 0.77700
C -0.62000 4.15600 0.19300
C -0.18700 4.01500 -1.22500
C -0.21400 2.58300 -1.38000
C -0.88700 5.40600 0.97400
C 0.18100 5.01300 -2.27700
O 0.30300 4.69000 -3.50800
C 0.31000 6.41400 -1.83700
N -0.26500 -0.41300 -2.02900
C -0.27900 0.56900 -2.93700
C -0.19600 0.02400 -4.33200
C 0.12400 -1.53300 -4.18000
C 0.08600 -1.63200 -2.63500
C -1.45100 0.20500 -5.19700
C 1.37300 -2.07000 -4.92300
C 2.62600 -1.49000 -4.30600
N 0.15000 -2.14400 0.30300
C 0.17300 -3.13600 -0.68800
C 0.17300 -4.43800 0.00400
C 0.13300 -4.11100 1.35800
C 0.08300 -2.69500 1.50200
C 0.14900 -5.71500 -0.62300
C 0.09600 -4.62900 2.71600
O 0.20800 -5.74700 3.22100
C -0.25500 -3.42800 3.70100
C 0.71700 -3.48200 4.84800
O 1.93100 -3.25500 4.66900
O 0.03800 -3.55600 6.00300
C 0.94300 -3.58300 7.18300
H -1.85900 3.22000 2.49700
H -0.21800 2.45300 -3.47400
H 0.27600 -3.74700 -2.60500
H -1.55400 -0.94900 5.13200
H -1.58500 1.83100 4.66500
H -3.48400 -0.37700 3.96900
H -3.51100 1.02700 2.85800
H -3.85200 1.30100 4.54300
H 0.66900 1.09600 4.96600
H 1.13000 -0.63900 5.18900
H -0.84400 0.02600 7.12500
H 0.06200 1.47700 6.92100
H -1.34400 5.18600 1.93800
H -1.65100 5.96300 0.43200
H 0.00700 6.02000 1.08400
H -0.63500 6.74400 -1.40500
H 0.66500 6.97000 -2.70400
H 1.04800 6.46600 -1.03600
H 0.60800 0.50100 -4.89100
H -0.69200 -2.15600 -4.54700
H -1.26700 0.74000 -6.12900
H -2.20400 0.71400 -4.59600
H -1.96700 -0.72000 -5.45300
H 1.35600 -1.75900 -5.96700
H 1.45200 -3.15700 -4.90200
H 2.71400 -0.52200 -4.79800
H 3.48700 -2.12100 -4.52900
H 2.49500 -1.30300 -3.24000
H 0.86700 -6.33300 -0.08400
H 0.40400 -5.64200 -1.68000
H -0.89100 -5.99900 -0.46300
H -1.28300 -3.58100 4.02800
H 0.69800 -4.47800 7.75500
H 0.83300 -2.61900 7.68000
H 2.00000 -3.75400 6.97600
Mg 15.77324 1.42640 1.19380
C 15.14999 4.24884 3.32087
C 14.91156 3.41202 -1.44237
C 15.87666 -1.15123 -0.65352
C 15.47137 -0.59286 4.01819
N 15.13252 3.54040 1.08104
C 14.99139 4.53162 1.94817
C 14.74067 5.92059 1.30207
C 14.12637 5.42749 -0.09735
C 14.78793 4.05364 -0.18414
C 12.62006 5.23061 -0.05736
C 16.06795 6.73094 1.09305
C 15.87167 8.21046 0.75504
H 16.83410 9.17714 1.27632
N 15.92135 1.26510 -0.77867
C 15.54404 2.17597 -1.70020
C 15.84336 1.57277 -3.00815
C 16.27532 0.16577 -2.78801
C 16.01558 0.02926 -1.36886
C 15.78503 2.34619 -4.29339
C 16.81868 -0.88721 -3.70572
O 16.90285 -2.11483 -3.34696
C 17.16204 -0.45544 -5.06849
N 15.47780 -0.59557 1.57684
C 15.63438 -1.51310 0.60650
C 15.64228 -2.91215 1.17483
C 15.70106 -2.73054 2.76264
C 15.62354 -1.19017 2.84421
C 14.44368 -3.78643 0.80687
C 16.85414 -3.45328 3.51145
C 18.18112 -2.83341 3.13693
N 15.56724 1.74734 3.32044
C 15.43117 0.76180 4.32258
C 15.20585 1.46831 5.60028
C 15.20351 2.82597 5.24637
C 15.39244 2.95561 3.84388
C 14.98896 0.85178 6.86478
C 15.07356 4.17850 5.73877
O 14.98489 4.69254 6.85306
C 14.90677 5.15498 4.49576
C 15.84164 6.31731 4.68946
O 17.07341 6.14626 4.67894
O 15.13742 7.46261 4.63750
C 16.02274 8.64459 4.81349
H 14.44368 3.87749 -2.31031
H 16.01508 -2.06990 -1.22828
H 15.46551 -1.14749 4.95895
H 14.02331 6.54189 1.82472
H 14.45394 6.06093 -0.91760
H 12.22563 5.34154 0.94177
H 12.44463 4.22776 -0.42419
H 12.13309 5.90187 -0.77052
H 16.55391 6.39015 0.16978
H 16.70992 6.63752 1.94732
H 14.84587 8.54550 0.95109
H 15.99427 8.33934 -0.32309
H 15.27729 3.30948 -4.16050
H 15.13334 1.78723 -4.97365
H 16.76567 2.46287 -4.75965
H 16.27993 -0.03782 -5.54802
H 17.61676 -1.32607 -5.54504
H 17.89807 0.35371 -5.00410
H 16.52084 -3.45631 0.85059
H 14.79437 -3.11711 3.25081
H 14.72977 -4.73247 0.30965
H 13.78174 -3.20962 0.17467
H 13.79413 -4.05342 1.63874
H 16.90453 -4.50172 3.20750
H 16.74605 -3.43573 4.59081
H 18.42996 -3.33289 2.19581
H 18.92833 -3.03688 3.90134
H 18.06962 -1.76406 2.92314
H 15.58078 1.40130 7.58469
H 15.26180 -0.20129 6.84568
H 13.91003 0.99446 6.96882
H 13.86303 5.46993 4.46433
H 15.62130 9.22247 5.65169
H 16.05429 9.14376 3.82679
H 17.03799 8.46506 5.14737

