%nproc=24
%mem=175gb
#p cam-b3lyp/Def2SVP td=(nstates=5)

TDDFT excited states in gaussian

0 1
Mg 0.00000 0.00000 0.00000
C -0.21700 -2.21800 2.80100
C -1.25500 2.44200 2.02600
C -0.24500 1.85000 -2.56400
C 0.14600 -2.82400 -2.03700
N -0.61700 -0.00900 2.12600
C -0.59400 -0.90800 3.10500
C -0.93600 -0.30900 4.50200
C -1.77300 0.96400 4.03200
C -1.15500 1.16800 2.66000
C -3.26300 0.68500 3.86300
C 0.34500 0.11000 5.29900
C 0.12400 0.39700 6.78700
H 1.16800 0.03300 7.73300
N -0.18500 1.96100 -0.15200
C -0.70300 2.80000 0.77700
C -0.62000 4.15600 0.19300
C -0.18700 4.01500 -1.22500
C -0.21400 2.58300 -1.38000
C -0.88700 5.40600 0.97400
C 0.18100 5.01300 -2.27700
O 0.30300 4.69000 -3.50800
C 0.31000 6.41400 -1.83700
N -0.26500 -0.41300 -2.02900
C -0.27900 0.56900 -2.93700
C -0.19600 0.02400 -4.33200
C 0.12400 -1.53300 -4.18000
C 0.08600 -1.63200 -2.63500
C -1.45100 0.20500 -5.19700
C 1.37300 -2.07000 -4.92300
C 2.62600 -1.49000 -4.30600
N 0.15000 -2.14400 0.30300
C 0.17300 -3.13600 -0.68800
C 0.17300 -4.43800 0.00400
C 0.13300 -4.11100 1.35800
C 0.08300 -2.69500 1.50200
C 0.14900 -5.71500 -0.62300
C 0.09600 -4.62900 2.71600
O 0.20800 -5.74700 3.22100
C -0.25500 -3.42800 3.70100
C 0.71700 -3.48200 4.84800
O 1.93100 -3.25500 4.66900
O 0.03800 -3.55600 6.00300
C 0.94300 -3.58300 7.18300
H -1.85900 3.22000 2.49700
H -0.21800 2.45300 -3.47400
H 0.27600 -3.74700 -2.60500
H -1.55400 -0.94900 5.13200
H -1.58500 1.83100 4.66500
H -3.48400 -0.37700 3.96900
H -3.51100 1.02700 2.85800
H -3.85200 1.30100 4.54300
H 0.66900 1.09600 4.96600
H 1.13000 -0.63900 5.18900
H -0.84400 0.02600 7.12500
H 0.06200 1.47700 6.92100
H -1.34400 5.18600 1.93800
H -1.65100 5.96300 0.43200
H 0.00700 6.02000 1.08400
H -0.63500 6.74400 -1.40500
H 0.66500 6.97000 -2.70400
H 1.04800 6.46600 -1.03600
H 0.60800 0.50100 -4.89100
H -0.69200 -2.15600 -4.54700
H -1.26700 0.74000 -6.12900
H -2.20400 0.71400 -4.59600
H -1.96700 -0.72000 -5.45300
H 1.35600 -1.75900 -5.96700
H 1.45200 -3.15700 -4.90200
H 2.71400 -0.52200 -4.79800
H 3.48700 -2.12100 -4.52900
H 2.49500 -1.30300 -3.24000
H 0.86700 -6.33300 -0.08400
H 0.40400 -5.64200 -1.68000
H -0.89100 -5.99900 -0.46300
H -1.28300 -3.58100 4.02800
H 0.69800 -4.47800 7.75500
H 0.83300 -2.61900 7.68000
H 2.00000 -3.75400 6.97600
Mg 10.51728 0.95452 0.80016
C 9.99395 1.50191 4.30809
C 9.38697 4.13173 0.28799
C 10.53905 0.35384 -2.31531
C 10.50486 -2.46487 1.47344
N 9.81149 2.51716 2.19740
C 9.71505 2.63325 3.51329
C 9.37381 4.06396 4.00946
C 8.66010 4.61542 2.68078
C 9.34982 3.72807 1.64658
C 7.16819 4.32979 2.63624
C 10.65653 4.89674 4.36031
C 10.39241 6.18678 5.13993
H 11.36755 6.60597 6.14286
N 10.50674 2.19691 -0.74740
C 10.02985 3.45910 -0.77437
C 10.23687 3.93809 -2.14982
C 10.72406 2.79930 -2.97476
C 10.58600 1.71036 -2.02860
C 10.05156 5.37351 -2.54814
C 11.21874 2.70375 -4.38628
O 11.36595 1.57382 -4.97314
C 11.43662 3.97492 -5.09206
N 10.31017 -0.79774 -0.29941
C 10.41147 -0.78862 -1.64015
C 10.50469 -2.19208 -2.18970
C 10.68908 -3.14097 -0.91566
C 10.57617 -2.08444 0.20523
C 9.30437 -2.66707 -3.00824
C 11.91940 -4.08912 -0.91648
C 13.19344 -3.28151 -0.81656
N 10.47846 -0.28178 2.57163
C 10.45260 -1.69259 2.62680
C 10.31397 -2.07024 4.04827
C 10.24510 -0.84295 4.72467
C 10.31418 0.22421 3.78878
C 10.21906 -3.39867 4.55064
C 10.11897 -0.20758 6.01661
O 10.10830 -0.60280 7.18169
C 9.82351 1.33808 5.79292
C 10.73881 2.12107 6.69384
O 11.96976 2.09844 6.51816
O 10.00144 2.93408 7.47208
C 10.86537 3.73964 8.37569
H 8.83653 5.02701 -0.00248
H 10.65488 0.09037 -3.36918
H 10.59181 -3.51094 1.77488
H 8.68512 4.10282 4.84491
H 8.90140 5.66097 2.50771
H 6.85453 3.69722 3.45332
H 6.99081 3.83906 1.68821
H 6.60582 5.26722 2.60024
H 11.07396 5.31761 3.43654
H 11.36904 4.29423 4.88940
H 9.37742 6.21743 5.55442
H 10.42217 7.02661 4.44149
H 9.53018 5.94309 -1.76894
H 9.36168 5.38276 -3.39892
H 10.98686 5.85200 -2.84634
H 10.50684 4.53827 -5.11672
H 11.87433 3.70343 -6.05465
H 12.15290 4.57469 -4.51949
H 11.36819 -2.29821 -2.83484
H 9.83668 -3.82470 -0.79006
H 9.57445 -2.99209 -4.03073
H 8.57696 -1.86695 -3.04326
H 8.73317 -3.47920 -2.56173
H 11.97341 -4.63863 -1.85950
H 11.90017 -4.82237 -0.11713
H 13.37753 -2.98182 -1.85260
H 14.00641 -3.89445 -0.43258
H 13.03530 -2.36765 -0.23219
H 10.85284 -3.44647 5.42616
H 10.51828 -4.12919 3.80193
H 9.14885 -3.44885 4.76839
H 8.77245 1.50826 6.02935
H 10.51861 3.55551 9.39722
H 10.80176 4.77882 8.00177
H 11.90924 3.45888 8.45285

