%nproc=24
%mem=175gb
#p cam-b3lyp/Def2SVP td=(nstates=5)

TDDFT excited states in gaussian

0 1
Mg 7.88899 0.71462 0.60618
C 7.50799 -1.52454 3.38468
C 6.49032 3.13673 2.55854
C 7.79518 2.58543 -1.95481
C 8.17711 -2.09305 -1.43825
N 7.13768 0.68775 2.68634
C 7.10112 -0.20353 3.66544
C 6.67612 0.37157 5.04319
C 5.85358 1.65040 4.52657
C 6.55536 1.86780 3.18757
C 4.38807 1.35387 4.25514
C 7.90684 0.79575 5.91921
C 7.58429 1.07561 7.38870
H 8.57481 0.71556 8.39951
N 7.70151 2.68501 0.46130
C 7.12732 3.51578 1.35651
C 7.22468 4.86347 0.77477
C 7.75522 4.73939 -0.61009
C 7.75153 3.29861 -0.76569
C 6.90802 6.10925 1.55012
C 8.18170 5.75064 -1.63073
O 8.38545 5.42775 -2.85427
C 8.26322 7.14648 -1.17634
N 7.76161 0.31268 -1.42964
C 7.79198 1.30731 -2.33391
C 7.96515 0.76708 -3.73340
C 8.28870 -0.78904 -3.55625
C 8.15259 -0.90276 -2.02200
C 6.76437 0.93420 -4.66430
C 9.58720 -1.31839 -4.22436
C 10.79816 -0.72877 -3.53784
N 8.03849 -1.41968 0.90695
C 8.12514 -2.41739 -0.08862
C 8.09041 -3.72386 0.60010
C 7.96175 -3.39333 1.95756
C 7.89899 -1.98107 2.10271
C 8.12518 -4.99871 -0.03210
C 7.85408 -3.91829 3.29977
O 7.93476 -5.03776 3.80376
C 7.42828 -2.73544 4.27237
C 8.32567 -2.78014 5.47869
O 9.54385 -2.55518 5.36891
O 7.56890 -2.86525 6.58793
C 8.41353 -2.90131 7.81150
H 5.85767 3.90488 3.00416
H 7.87612 3.18734 -2.86291
H 8.36058 -3.01345 -1.99672
H 6.03091 -0.27496 5.62583
H 6.00366 2.50655 5.17914
H 4.16740 0.30035 4.34190
H 4.20023 1.69796 3.24649
H 3.75351 1.96362 4.90466
H 8.24170 1.79333 5.60707
H 8.69054 0.06624 5.85386
H 6.59293 0.70130 7.67163
H 7.51238 2.15697 7.52834
H 6.38524 5.87830 2.48648
H 6.17616 6.67416 0.96264
H 7.78656 6.73605 1.71733
H 7.29249 7.46128 -0.80078
H 8.67000 7.70556 -2.02123
H 8.95960 7.19945 -0.33203
H 8.79954 1.24497 -4.23191
H 7.49965 -1.42116 -3.98945
H 7.00529 1.48555 -5.59277
H 5.97621 1.43526 -4.11815
H 6.28195 0.00634 -4.96689
H 9.63457 -0.99671 -5.26764
H 9.66657 -2.40035 -4.21704
H 10.90428 0.24756 -4.02014
H 11.67514 -1.35020 -3.70749
H 10.60018 -0.55131 -2.47438
H 8.80546 -5.61288 0.54281
H 8.44085 -4.91918 -1.07027
H 7.07489 -5.28906 0.05649
H 6.38091 -2.88852 4.53537
H 8.13574 -3.80361 8.36501
H 8.25007 -1.93051 8.31606
H 9.47865 -3.05278 7.68097

