%nproc=24
%mem=175gb
#p cam-b3lyp/Def2SVP td=(nstates=5)

TDDFT excited states in gaussian

0 1
Mg 7.89009 0.70714 0.60641
C 8.03276 -2.85799 0.22102
C 6.81291 0.16925 3.79780
C 7.32351 3.82075 0.83421
C 7.86390 0.94268 -2.87059
N 7.51163 -1.14966 1.74715
C 7.65974 -2.44564 1.51727
C 7.47111 -3.34630 2.76739
C 6.55111 -2.35933 3.63822
C 7.00636 -1.02302 3.05539
C 5.06565 -2.52011 3.36092
C 8.82823 -3.65511 3.49187
C 8.76112 -4.77433 4.53331
H 9.91761 -5.65268 4.68662
N 7.64890 1.85485 2.20740
C 7.22556 1.46857 3.42923
C 7.19898 2.68898 4.25023
C 7.48310 3.85373 3.36855
C 7.47547 3.20971 2.07037
C 7.00181 2.66457 5.73817
C 7.70983 5.30890 3.64654
O 7.70332 6.18256 2.70872
C 7.84666 5.69295 5.05908
N 7.41784 2.16113 -0.80258
C 7.27498 3.44948 -0.44529
C 7.21130 4.34786 -1.65741
C 7.58548 3.41660 -2.90253
C 7.71946 2.06148 -2.17376
C 5.86470 5.02390 -1.91438
C 8.75664 3.88826 -3.80729
C 10.05878 3.82235 -3.04213
N 8.12356 -0.66368 -1.04719
C 8.05207 -0.35914 -2.42423
C 8.15822 -1.63653 -3.15869
C 8.26179 -2.60558 -2.14939
C 8.20263 -1.97849 -0.87551
C 8.10312 -1.79015 -4.57272
C 8.39703 -4.01745 -1.87182
O 8.58179 -5.02341 -2.55567
C 8.12761 -4.25618 -0.32366
C 9.22130 -5.14210 0.20693
O 10.39820 -4.74170 0.24135
O 8.66992 -6.22536 0.78391
C 9.71451 -7.12912 1.33515
H 6.25500 0.11338 4.73295
H 7.23604 4.90952 0.85401
H 7.96235 0.94097 -3.95824
H 6.94718 -4.27636 2.58231
H 6.79845 -2.41849 4.69496
H 4.88023 -3.19119 2.53544
H 4.70018 -1.52778 3.13124
H 4.54376 -2.83040 4.27069
H 9.08789 -2.80933 4.14147
H 9.60025 -3.87065 2.77901
H 7.83999 -5.36335 4.44661
H 8.69728 -4.32151 5.52573
H 6.65319 1.68281 6.08168
H 6.17020 3.34158 5.96167
H 7.88592 2.99800 6.28574
H 6.95092 5.39975 5.60143
H 8.09170 6.75679 5.05026
H 8.67804 5.12864 5.49610
H 7.93880 5.14700 -1.58513
H 6.74342 3.31488 -3.60284
H 5.93205 6.12725 -1.96082
H 5.17536 4.71732 -1.13891
H 5.35197 4.70273 -2.81945
H 8.61713 4.93375 -4.09302
H 8.85333 3.31433 -4.72285
H 10.06401 4.76248 -2.48248
H 10.90283 3.76574 -3.72655
H 10.04552 3.00442 -2.31243
H 8.88254 -2.49113 -4.84035
H 8.23256 -0.83718 -5.08152
H 7.08889 -2.18203 -4.68696
H 7.14435 -4.71873 -0.22976
H 9.55141 -8.11524 0.88945
H 9.62560 -7.05257 2.43515
H 10.74310 -6.93706 1.05309

