%nproc=24
%mem=175gb
#p cam-b3lyp/Def2SVP td=(nstates=5)

TDDFT excited states in gaussian

0 1
Mg 8.93928 0.81082 0.68535
C 9.34022 -1.32839 3.53879
C 7.15739 2.91107 2.69743
C 8.18647 2.48859 -1.90034
C 9.73382 -1.93385 -1.30993
N 8.38831 0.69711 2.82446
C 8.64887 -0.13242 3.82362
C 8.21014 0.38466 5.21994
C 7.06253 1.40451 4.74902
C 7.57948 1.72410 3.34784
C 5.69587 0.75327 4.61689
C 9.36788 1.13027 5.97208
C 9.10734 1.38970 7.45753
H 10.23428 1.32316 8.38384
N 8.26776 2.67023 0.51145
C 7.58358 3.37799 1.43462
C 7.30319 4.68240 0.81491
C 7.73382 4.62772 -0.60856
C 8.06755 3.22267 -0.72921
C 6.75743 5.84908 1.58592
C 7.81768 5.66529 -1.68681
O 7.99379 5.34658 -2.91573
C 7.59435 7.05872 -1.27456
N 8.74859 0.29986 -1.32086
C 8.46303 1.23147 -2.24741
C 8.64809 0.68682 -3.64365
C 9.35315 -0.73676 -3.45956
C 9.37367 -0.81140 -1.91703
C 7.37123 0.51937 -4.46705
C 10.68272 -0.96832 -4.22852
C 11.76581 -0.07544 -3.66722
N 9.62655 -1.20971 1.02174
C 9.87184 -2.20078 0.04620
C 10.21144 -3.44545 0.76586
C 10.11693 -3.09535 2.12121
C 9.72505 -1.73437 2.23809
C 10.50338 -4.70156 0.16330
C 10.24924 -3.57053 3.47967
O 10.64000 -4.61437 4.00066
C 9.62927 -2.48230 4.45833
C 10.60547 -2.25666 5.58022
O 11.71949 -1.75113 5.35660
O 9.98459 -2.47138 6.75443
C 10.90909 -2.24925 7.89801
H 6.39543 3.52406 3.17966
H 8.04486 3.05131 -2.82596
H 10.08939 -2.80727 -1.86073
H 7.79073 -0.37119 5.87306
H 7.05261 2.29983 5.36519
H 5.74546 -0.31749 4.74784
H 5.34889 0.99699 3.62127
H 4.98707 1.22125 5.30604
H 9.42398 2.16415 5.60780
H 10.29732 0.60793 5.85406
H 8.26289 0.80146 7.83678
H 8.78653 2.42734 7.57753
H 6.38414 5.54136 2.57049
H 5.86512 6.19518 1.05314
H 7.46803 6.67514 1.65902
H 6.61000 7.14784 -0.82115
H 7.78324 7.66089 -2.16540
H 8.32314 7.31474 -0.49743
H 9.29815 1.32826 -4.22596
H 8.70878 -1.55836 -3.80539
H 7.39489 1.07053 -5.42608
H 6.53196 0.84051 -3.86452
H 7.10569 -0.50964 -4.70330
H 10.56574 -0.69144 -5.27915
H 11.02280 -1.99821 -4.20285
H 11.59214 0.87537 -4.17994
H 12.75070 -0.47525 -3.89997
H 11.61761 0.09649 -2.59478
H 11.35678 -5.10837 0.68933
H 10.70498 -4.59491 -0.90054
H 9.56580 -5.23116 0.35234
H 8.67533 -2.87032 4.81754
H 10.90460 -3.16629 8.49527
H 10.55624 -1.32456 8.39217
H 11.96489 -2.14642 7.67630

