%nproc=24
%mem=175gb
#p cam-b3lyp/Def2SVP td=(nstates=5)

TDDFT excited states in gaussian

0 1
Mg 0.00000 0.00000 0.00000
C -0.21700 -2.21800 2.80100
C -1.25500 2.44200 2.02600
C -0.24500 1.85000 -2.56400
C 0.14600 -2.82400 -2.03700
N -0.61700 -0.00900 2.12600
C -0.59400 -0.90800 3.10500
C -0.93600 -0.30900 4.50200
C -1.77300 0.96400 4.03200
C -1.15500 1.16800 2.66000
C -3.26300 0.68500 3.86300
C 0.34500 0.11000 5.29900
C 0.12400 0.39700 6.78700
H 1.16800 0.03300 7.73300
N -0.18500 1.96100 -0.15200
C -0.70300 2.80000 0.77700
C -0.62000 4.15600 0.19300
C -0.18700 4.01500 -1.22500
C -0.21400 2.58300 -1.38000
C -0.88700 5.40600 0.97400
C 0.18100 5.01300 -2.27700
O 0.30300 4.69000 -3.50800
C 0.31000 6.41400 -1.83700
N -0.26500 -0.41300 -2.02900
C -0.27900 0.56900 -2.93700
C -0.19600 0.02400 -4.33200
C 0.12400 -1.53300 -4.18000
C 0.08600 -1.63200 -2.63500
C -1.45100 0.20500 -5.19700
C 1.37300 -2.07000 -4.92300
C 2.62600 -1.49000 -4.30600
N 0.15000 -2.14400 0.30300
C 0.17300 -3.13600 -0.68800
C 0.17300 -4.43800 0.00400
C 0.13300 -4.11100 1.35800
C 0.08300 -2.69500 1.50200
C 0.14900 -5.71500 -0.62300
C 0.09600 -4.62900 2.71600
O 0.20800 -5.74700 3.22100
C -0.25500 -3.42800 3.70100
C 0.71700 -3.48200 4.84800
O 1.93100 -3.25500 4.66900
O 0.03800 -3.55600 6.00300
C 0.94300 -3.58300 7.18300
H -1.85900 3.22000 2.49700
H -0.21800 2.45300 -3.47400
H 0.27600 -3.74700 -2.60500
H -1.55400 -0.94900 5.13200
H -1.58500 1.83100 4.66500
H -3.48400 -0.37700 3.96900
H -3.51100 1.02700 2.85800
H -3.85200 1.30100 4.54300
H 0.66900 1.09600 4.96600
H 1.13000 -0.63900 5.18900
H -0.84400 0.02600 7.12500
H 0.06200 1.47700 6.92100
H -1.34400 5.18600 1.93800
H -1.65100 5.96300 0.43200
H 0.00700 6.02000 1.08400
H -0.63500 6.74400 -1.40500
H 0.66500 6.97000 -2.70400
H 1.04800 6.46600 -1.03600
H 0.60800 0.50100 -4.89100
H -0.69200 -2.15600 -4.54700
H -1.26700 0.74000 -6.12900
H -2.20400 0.71400 -4.59600
H -1.96700 -0.72000 -5.45300
H 1.35600 -1.75900 -5.96700
H 1.45200 -3.15700 -4.90200
H 2.71400 -0.52200 -4.79800
H 3.48700 -2.12100 -4.52900
H 2.49500 -1.30300 -3.24000
H 0.86700 -6.33300 -0.08400
H 0.40400 -5.64200 -1.68000
H -0.89100 -5.99900 -0.46300
H -1.28300 -3.58100 4.02800
H 0.69800 -4.47800 7.75500
H 0.83300 -2.61900 7.68000
H 2.00000 -3.75400 6.97600
Mg 7.87963 0.71785 0.60462
C 10.09918 0.55500 3.41996
C 5.30582 0.26891 2.79747
C 5.94137 0.40617 -1.88806
C 10.62428 0.01174 -1.42367
N 7.83503 0.45863 2.80077
C 8.73562 0.47558 3.77185
C 8.13708 0.48426 5.20407
C 6.71234 -0.17875 4.87329
C 6.58474 0.23424 3.40843
C 6.72443 -1.69679 4.94225
C 7.97595 1.93657 5.77576
C 7.68931 2.00852 7.27723
H 8.25858 3.11445 8.04230
N 5.90482 0.87474 0.48584
C 5.01193 0.68076 1.47901
C 3.68714 0.89609 0.87672
C 3.86188 1.07116 -0.59077
C 5.27143 0.76337 -0.72697
C 2.43020 0.99935 1.69088
C 2.91404 1.44038 -1.69144
O 3.22903 1.30167 -2.92609
C 1.57272 1.88094 -1.28125
N 8.18477 0.06619 -1.34591
C 7.18395 0.07937 -2.24375
C 7.70107 -0.16855 -3.64071
C 9.29509 -0.11056 -3.52536
C 9.43156 0.08057 -1.99885
C 7.28511 -1.49388 -4.27859
C 10.03291 0.88340 -4.46362
C 9.69946 2.30545 -4.07377
N 10.01350 0.52880 0.88548
C 10.97717 0.20274 -0.09386
C 12.27649 0.07892 0.59812
C 11.97221 0.32081 1.94622
C 10.57809 0.55736 2.08752
C 13.51464 -0.26747 -0.01274
C 12.51164 0.41934 3.28339
O 13.64256 0.39967 3.76750
C 11.30280 0.45046 4.31495
C 11.55148 1.56996 5.28829
O 11.55168 2.75287 4.90445
O 11.53153 1.07780 6.54039
C 11.76255 2.15229 7.54234
H 4.44904 -0.09310 3.36647
H 5.33553 0.39340 -2.79705
H 11.54408 -0.10963 -1.99979
H 8.67207 -0.12380 5.92367
H 5.92025 0.27069 5.46655
H 7.72141 -2.08558 5.08716
H 6.31899 -2.03736 3.99849
H 6.02952 -2.04472 5.71191
H 7.04765 2.37382 5.38610
H 8.83500 2.53523 5.54278
H 7.88329 1.05332 7.78014
H 6.61836 2.17319 7.41856
H 2.59106 0.66514 2.72327
H 1.72117 0.27371 1.27784
H 1.98202 1.99438 1.64938
H 1.09661 1.09507 -0.69971
H 1.07112 2.18599 -2.20169
H 1.67661 2.74557 -0.61624
H 7.36937 0.60772 -4.31930
H 9.75637 -1.08038 -3.76311
H 6.75779 -1.36760 -5.24299
H 6.66527 -2.03216 -3.57391
H 8.09770 -2.19650 -4.45524
H 9.69175 0.75591 -5.49392
H 11.11060 0.75857 -4.46346
H 8.74431 2.48189 -4.57741
H 10.46616 2.99026 -4.43047
H 9.52319 2.38673 -2.99490
H 14.26213 0.39680 0.40019
H 13.46100 -0.18245 -1.09610
H 13.60896 -1.30674 0.31328
H 11.26849 -0.52138 4.80883
H 12.61562 1.84137 8.15331
H 10.79519 2.29019 8.06094
H 12.10360 3.11373 7.17660

