%nproc=24
%mem=175gb
#p cam-b3lyp/Def2SVP td=(nstates=5)

TDDFT excited states in gaussian

0 1
Mg 0.00000 0.00000 0.00000
C -0.21700 -2.21800 2.80100
C -1.25500 2.44200 2.02600
C -0.24500 1.85000 -2.56400
C 0.14600 -2.82400 -2.03700
N -0.61700 -0.00900 2.12600
C -0.59400 -0.90800 3.10500
C -0.93600 -0.30900 4.50200
C -1.77300 0.96400 4.03200
C -1.15500 1.16800 2.66000
C -3.26300 0.68500 3.86300
C 0.34500 0.11000 5.29900
C 0.12400 0.39700 6.78700
H 1.16800 0.03300 7.73300
N -0.18500 1.96100 -0.15200
C -0.70300 2.80000 0.77700
C -0.62000 4.15600 0.19300
C -0.18700 4.01500 -1.22500
C -0.21400 2.58300 -1.38000
C -0.88700 5.40600 0.97400
C 0.18100 5.01300 -2.27700
O 0.30300 4.69000 -3.50800
C 0.31000 6.41400 -1.83700
N -0.26500 -0.41300 -2.02900
C -0.27900 0.56900 -2.93700
C -0.19600 0.02400 -4.33200
C 0.12400 -1.53300 -4.18000
C 0.08600 -1.63200 -2.63500
C -1.45100 0.20500 -5.19700
C 1.37300 -2.07000 -4.92300
C 2.62600 -1.49000 -4.30600
N 0.15000 -2.14400 0.30300
C 0.17300 -3.13600 -0.68800
C 0.17300 -4.43800 0.00400
C 0.13300 -4.11100 1.35800
C 0.08300 -2.69500 1.50200
C 0.14900 -5.71500 -0.62300
C 0.09600 -4.62900 2.71600
O 0.20800 -5.74700 3.22100
C -0.25500 -3.42800 3.70100
C 0.71700 -3.48200 4.84800
O 1.93100 -3.25500 4.66900
O 0.03800 -3.55600 6.00300
C 0.94300 -3.58300 7.18300
H -1.85900 3.22000 2.49700
H -0.21800 2.45300 -3.47400
H 0.27600 -3.74700 -2.60500
H -1.55400 -0.94900 5.13200
H -1.58500 1.83100 4.66500
H -3.48400 -0.37700 3.96900
H -3.51100 1.02700 2.85800
H -3.85200 1.30100 4.54300
H 0.66900 1.09600 4.96600
H 1.13000 -0.63900 5.18900
H -0.84400 0.02600 7.12500
H 0.06200 1.47700 6.92100
H -1.34400 5.18600 1.93800
H -1.65100 5.96300 0.43200
H 0.00700 6.02000 1.08400
H -0.63500 6.74400 -1.40500
H 0.66500 6.97000 -2.70400
H 1.04800 6.46600 -1.03600
H 0.60800 0.50100 -4.89100
H -0.69200 -2.15600 -4.54700
H -1.26700 0.74000 -6.12900
H -2.20400 0.71400 -4.59600
H -1.96700 -0.72000 -5.45300
H 1.35600 -1.75900 -5.96700
H 1.45200 -3.15700 -4.90200
H 2.71400 -0.52200 -4.79800
H 3.48700 -2.12100 -4.52900
H 2.49500 -1.30300 -3.24000
H 0.86700 -6.33300 -0.08400
H 0.40400 -5.64200 -1.68000
H -0.89100 -5.99900 -0.46300
H -1.28300 -3.58100 4.02800
H 0.69800 -4.47800 7.75500
H 0.83300 -2.61900 7.68000
H 2.00000 -3.75400 6.97600
Mg 7.87476 0.70821 0.60515
C 8.35762 3.33509 3.00211
C 8.06676 -1.49406 3.20279
C 7.90302 -1.64557 -1.52238
C 8.85319 2.96782 -1.86114
N 8.17467 1.00385 2.77653
C 8.28442 2.05074 3.58047
C 8.23685 1.70751 5.09358
C 8.72109 0.17873 5.00871
C 8.26424 -0.14383 3.58747
C 10.23124 0.02136 5.07227
C 6.78844 1.81918 5.68657
C 6.71608 1.80035 7.21502
H 5.70133 2.61804 7.87392
N 7.48513 -1.22541 0.82392
C 7.59475 -1.95480 1.95408
C 7.21270 -3.32692 1.58601
C 7.02744 -3.38243 0.11044
C 7.49515 -2.06285 -0.26378
C 6.98068 -4.40729 2.60208
C 6.52590 -4.45140 -0.81258
O 6.67367 -4.36781 -2.08301
C 5.94031 -5.64224 -0.17974
N 8.51511 0.60041 -1.36986
C 8.36529 -0.52861 -2.08455
C 8.64163 -0.28761 -3.54946
C 8.77325 1.29845 -3.70657
C 8.63265 1.71203 -2.22516
C 9.89493 -0.95998 -4.10940
C 7.85236 1.98063 -4.75504
C 6.40987 1.88944 -4.31201
N 8.31849 2.82097 0.51901
C 8.73379 3.55998 -0.61035
C 9.02395 4.93322 -0.14942
C 8.77745 4.89151 1.23115
C 8.38238 3.57940 1.60767
C 9.49958 6.00050 -0.96233
C 8.77187 5.65644 2.45735
O 8.93438 6.84226 2.74221
C 8.62183 4.65119 3.67938
C 7.56059 5.19191 4.59803
O 6.37778 5.26830 4.22155
O 8.07414 5.32480 5.83454
C 7.05614 5.84771 6.78432
H 8.33821 -2.27962 3.90855
H 7.82498 -2.39309 -2.31522
H 9.06889 3.75625 -2.58538
H 8.91888 2.27984 5.71087
H 8.19499 -0.44279 5.72864
H 10.73718 0.97500 5.04506
H 10.50138 -0.57498 4.21062
H 10.51205 -0.57030 5.94830
H 6.23712 0.89728 5.46100
H 6.28959 2.69177 5.31192
H 7.69813 1.96115 7.67618
H 6.43024 0.79589 7.53654
H 7.35379 -4.11570 3.59161
H 7.60913 -5.25709 2.31442
H 5.93934 -4.73429 2.63888
H 6.67747 -6.10368 0.47304
H 5.55867 -6.25184 -1.00109
H 5.10846 -5.32552 0.45927
H 7.81728 -0.63408 -4.16061
H 9.78501 1.59421 -4.02074
H 9.68683 -1.62345 -4.96997
H 10.37212 -1.51182 -3.31047
H 10.68388 -0.27834 -4.42265
H 7.91659 1.45798 -5.71257
H 8.10252 3.02027 -4.93821
H 6.11187 0.89098 -4.64573
H 5.81197 2.66109 -4.79275
H 6.33198 1.90848 -3.21874
H 8.93656 6.88061 -0.68142
H 9.38533 5.77555 -2.02068
H 10.54959 6.02395 -0.65868
H 9.59347 4.58511 4.17042
H 7.47804 6.74835 7.24095
H 6.81721 5.00500 7.45997
H 6.13354 6.23429 6.36741

