%nproc=24
%mem=175gb
#p cam-b3lyp/Def2SVP td=(nstates=5)

TDDFT excited states in gaussian

0 1
Mg 31.52278 2.84127 2.39207
C 30.78265 0.03138 0.28592
C 31.08842 4.82164 -0.35094
C 32.60640 5.28196 4.10560
C 32.98918 0.60396 4.62585
N 31.00337 2.37024 0.29430
C 30.68455 1.27313 -0.37580
C 30.15808 1.52786 -1.81368
C 30.84122 2.95843 -2.06997
C 30.95678 3.43666 -0.62407
C 32.24072 2.86104 -2.65414
C 28.59273 1.62059 -1.86939
C 27.99454 1.55910 -3.27656
H 26.71403 0.88140 -3.45952
N 31.34352 4.79594 2.09931
C 31.14816 5.42802 0.92306
C 31.10575 6.86393 1.24013
C 31.45647 7.03782 2.67591
C 31.84450 5.68420 3.01829
C 30.68026 7.90465 0.24550
C 31.45643 8.22831 3.58638
O 32.02584 8.19810 4.73429
C 30.85157 9.45902 3.05630
N 32.82060 2.96082 4.01185
C 33.08209 4.14003 4.60263
C 33.81758 3.94540 5.90707
C 33.78247 2.37166 6.18941
C 33.07960 1.89851 4.89810
C 35.26539 4.43481 5.93388
C 33.20318 1.91463 7.55624
C 31.72280 2.21512 7.61581
N 31.68195 0.69335 2.56290
C 32.36262 -0.03464 3.56331
C 32.28724 -1.46211 3.19037
C 31.58222 -1.46352 1.97734
C 31.25977 -0.12934 1.60928
C 32.86950 -2.54224 3.91176
C 31.04671 -2.28946 0.91916
O 30.93946 -3.50082 0.73250
C 30.61532 -1.34857 -0.28709
C 29.23803 -1.76156 -0.72871
O 28.26219 -1.61949 0.02903
O 29.26490 -2.05127 -2.04238
C 27.91923 -2.45571 -2.52964
H 31.19883 5.50792 -1.19100
H 32.91074 6.07845 4.78858
H 33.33668 -0.16421 5.32000
H 30.49865 0.81502 -2.55507
H 30.18501 3.61360 -2.63699
H 32.59199 1.84054 -2.69053
H 32.87181 3.45553 -2.00657
H 32.27444 3.34465 -3.63460
H 28.28338 2.63252 -1.57778
H 28.14419 0.86611 -1.25278
H 28.72290 1.21146 -4.01925
H 27.75146 2.57572 -3.59502
H 30.64188 7.49665 -0.77208
H 31.47717 8.65520 0.20733
H 29.74529 8.39574 0.52360
H 31.36908 9.75276 2.14616
H 30.86584 10.17139 3.88346
H 29.81461 9.24564 2.77381
H 33.31268 4.45891 6.71607
H 34.79102 1.93289 6.17709
H 35.46150 5.17403 6.73336
H 35.50283 4.85155 4.96409
H 36.01537 3.65274 6.03917
H 33.66691 2.47622 8.37093
H 33.36016 0.86092 7.76128
H 31.69639 3.26724 7.91487
H 31.23292 1.58271 8.35345
H 31.26634 2.14343 6.62175
H 32.13157 -3.33299 3.93771
H 33.16309 -2.23832 4.91436
H 33.73424 -2.75638 3.27800
H 31.35392 -1.47293 -1.07991
H 28.03072 -3.43932 -2.99630
H 27.57440 -1.62736 -3.17669
H 27.15738 -2.65942 -1.78630

