%nproc=24
%mem=175gb
#p cam-b3lyp/Def2SVP td=(nstates=5)

TDDFT excited states in gaussian

0 1
Mg 0.00000 0.00000 0.00000
C -0.21700 -2.21800 2.80100
C -1.25500 2.44200 2.02600
C -0.24500 1.85000 -2.56400
C 0.14600 -2.82400 -2.03700
N -0.61700 -0.00900 2.12600
C -0.59400 -0.90800 3.10500
C -0.93600 -0.30900 4.50200
C -1.77300 0.96400 4.03200
C -1.15500 1.16800 2.66000
C -3.26300 0.68500 3.86300
C 0.34500 0.11000 5.29900
C 0.12400 0.39700 6.78700
H 1.16800 0.03300 7.73300
N -0.18500 1.96100 -0.15200
C -0.70300 2.80000 0.77700
C -0.62000 4.15600 0.19300
C -0.18700 4.01500 -1.22500
C -0.21400 2.58300 -1.38000
C -0.88700 5.40600 0.97400
C 0.18100 5.01300 -2.27700
O 0.30300 4.69000 -3.50800
C 0.31000 6.41400 -1.83700
N -0.26500 -0.41300 -2.02900
C -0.27900 0.56900 -2.93700
C -0.19600 0.02400 -4.33200
C 0.12400 -1.53300 -4.18000
C 0.08600 -1.63200 -2.63500
C -1.45100 0.20500 -5.19700
C 1.37300 -2.07000 -4.92300
C 2.62600 -1.49000 -4.30600
N 0.15000 -2.14400 0.30300
C 0.17300 -3.13600 -0.68800
C 0.17300 -4.43800 0.00400
C 0.13300 -4.11100 1.35800
C 0.08300 -2.69500 1.50200
C 0.14900 -5.71500 -0.62300
C 0.09600 -4.62900 2.71600
O 0.20800 -5.74700 3.22100
C -0.25500 -3.42800 3.70100
C 0.71700 -3.48200 4.84800
O 1.93100 -3.25500 4.66900
O 0.03800 -3.55600 6.00300
C 0.94300 -3.58300 7.18300
H -1.85900 3.22000 2.49700
H -0.21800 2.45300 -3.47400
H 0.27600 -3.74700 -2.60500
H -1.55400 -0.94900 5.13200
H -1.58500 1.83100 4.66500
H -3.48400 -0.37700 3.96900
H -3.51100 1.02700 2.85800
H -3.85200 1.30100 4.54300
H 0.66900 1.09600 4.96600
H 1.13000 -0.63900 5.18900
H -0.84400 0.02600 7.12500
H 0.06200 1.47700 6.92100
H -1.34400 5.18600 1.93800
H -1.65100 5.96300 0.43200
H 0.00700 6.02000 1.08400
H -0.63500 6.74400 -1.40500
H 0.66500 6.97000 -2.70400
H 1.04800 6.46600 -1.03600
H 0.60800 0.50100 -4.89100
H -0.69200 -2.15600 -4.54700
H -1.26700 0.74000 -6.12900
H -2.20400 0.71400 -4.59600
H -1.96700 -0.72000 -5.45300
H 1.35600 -1.75900 -5.96700
H 1.45200 -3.15700 -4.90200
H 2.71400 -0.52200 -4.79800
H 3.48700 -2.12100 -4.52900
H 2.49500 -1.30300 -3.24000
H 0.86700 -6.33300 -0.08400
H 0.40400 -5.64200 -1.68000
H -0.89100 -5.99900 -0.46300
H -1.28300 -3.58100 4.02800
H 0.69800 -4.47800 7.75500
H 0.83300 -2.61900 7.68000
H 2.00000 -3.75400 6.97600
Mg 10.50843 0.93905 0.80582
C 8.52892 2.91110 3.05784
C 12.64106 0.37869 3.40822
C 12.50237 -0.42448 -1.25146
C 8.88794 2.56132 -1.81867
N 10.48055 1.61144 2.91280
C 9.64610 2.30659 3.67096
C 9.98705 2.28986 5.18523
C 11.55709 1.97104 5.07470
C 11.56469 1.24270 3.73226
C 12.41676 3.21760 4.94665
C 9.22384 1.15696 5.95728
C 9.26865 1.27537 7.48231
H 8.09433 0.86484 8.24712
N 12.03061 -0.29534 1.11857
C 12.76991 -0.40728 2.24204
C 13.77836 -1.44022 1.95879
C 13.67840 -1.81164 0.52116
C 12.72644 -0.82168 0.05872
C 14.65869 -2.03106 3.02150
C 14.34088 -2.87298 -0.30399
O 14.28566 -2.86275 -1.58449
C 15.13424 -3.87184 0.42700
N 10.82691 1.19872 -1.23219
C 11.71811 0.44064 -1.89475
C 11.57783 0.61361 -3.38834
C 10.24070 1.46537 -3.59848
C 9.87123 1.72490 -2.12148
C 12.74209 1.31333 -4.08924
C 9.16006 0.85922 -4.53521
C 8.57172 -0.38401 -3.90781
N 8.86007 2.32250 0.61336
C 8.36221 2.89579 -0.57725
C 7.31285 3.86089 -0.19012
C 7.28880 3.79848 1.21132
C 8.26888 2.87557 1.66649
C 6.56832 4.68271 -1.08253
C 6.66447 4.31133 2.40960
O 5.71178 5.05404 2.64307
C 7.52629 3.85331 3.66415
C 6.58381 3.30252 4.69898
O 5.93825 2.26312 4.47651
O 6.76225 3.96668 5.85546
C 5.85728 3.44888 6.91600
H 13.48933 0.32789 4.09140
H 13.08939 -0.94781 -2.00976
H 8.26827 3.03500 -2.58307
H 9.83423 3.23316 5.69572
H 11.88219 1.30644 5.87092
H 11.81871 4.10940 4.83191
H 13.03388 3.06075 4.07166
H 13.10613 3.28865 5.79285
H 9.76204 0.20935 5.82651
H 8.20445 1.09272 5.62962
H 9.61376 2.26386 7.80903
H 10.02818 0.58744 7.86162
H 14.62072 -1.44411 3.94748
H 15.69257 -1.92569 2.67531
H 14.45180 -3.08842 3.20000
H 15.91728 -3.36946 0.98996
H 15.45442 -4.59702 -0.32365
H 14.48626 -4.36479 1.16032
H 11.46474 -0.34496 -3.87972
H 10.44958 2.44755 -4.04741
H 13.19059 0.70853 -4.89989
H 13.48680 1.56462 -3.34573
H 12.50597 2.28592 -4.51762
H 9.61050 0.54645 -5.48043
H 8.35830 1.55013 -4.77359
H 9.29332 -1.16125 -4.17667
H 7.58952 -0.59580 -4.32549
H 8.56277 -0.30653 -2.81439
H 5.53868 4.64787 -0.75218
H 6.66813 4.34418 -2.11170
H 7.05997 5.64516 -0.91748
H 8.06699 4.72820 4.02718
H 5.28563 4.30254 7.29303
H 6.51157 2.92304 7.63651
H 5.06141 2.77882 6.61256

