%nproc=24
%mem=175gb
#p cam-b3lyp/Def2SVP td=(nstates=5)

TDDFT excited states in gaussian

0 1
Mg 0.00000 0.00000 0.00000
C -0.21700 -2.21800 2.80100
C -1.25500 2.44200 2.02600
C -0.24500 1.85000 -2.56400
C 0.14600 -2.82400 -2.03700
N -0.61700 -0.00900 2.12600
C -0.59400 -0.90800 3.10500
C -0.93600 -0.30900 4.50200
C -1.77300 0.96400 4.03200
C -1.15500 1.16800 2.66000
C -3.26300 0.68500 3.86300
C 0.34500 0.11000 5.29900
C 0.12400 0.39700 6.78700
H 1.16800 0.03300 7.73300
N -0.18500 1.96100 -0.15200
C -0.70300 2.80000 0.77700
C -0.62000 4.15600 0.19300
C -0.18700 4.01500 -1.22500
C -0.21400 2.58300 -1.38000
C -0.88700 5.40600 0.97400
C 0.18100 5.01300 -2.27700
O 0.30300 4.69000 -3.50800
C 0.31000 6.41400 -1.83700
N -0.26500 -0.41300 -2.02900
C -0.27900 0.56900 -2.93700
C -0.19600 0.02400 -4.33200
C 0.12400 -1.53300 -4.18000
C 0.08600 -1.63200 -2.63500
C -1.45100 0.20500 -5.19700
C 1.37300 -2.07000 -4.92300
C 2.62600 -1.49000 -4.30600
N 0.15000 -2.14400 0.30300
C 0.17300 -3.13600 -0.68800
C 0.17300 -4.43800 0.00400
C 0.13300 -4.11100 1.35800
C 0.08300 -2.69500 1.50200
C 0.14900 -5.71500 -0.62300
C 0.09600 -4.62900 2.71600
O 0.20800 -5.74700 3.22100
C -0.25500 -3.42800 3.70100
C 0.71700 -3.48200 4.84800
O 1.93100 -3.25500 4.66900
O 0.03800 -3.55600 6.00300
C 0.94300 -3.58300 7.18300
H -1.85900 3.22000 2.49700
H -0.21800 2.45300 -3.47400
H 0.27600 -3.74700 -2.60500
H -1.55400 -0.94900 5.13200
H -1.58500 1.83100 4.66500
H -3.48400 -0.37700 3.96900
H -3.51100 1.02700 2.85800
H -3.85200 1.30100 4.54300
H 0.66900 1.09600 4.96600
H 1.13000 -0.63900 5.18900
H -0.84400 0.02600 7.12500
H 0.06200 1.47700 6.92100
H -1.34400 5.18600 1.93800
H -1.65100 5.96300 0.43200
H 0.00700 6.02000 1.08400
H -0.63500 6.74400 -1.40500
H 0.66500 6.97000 -2.70400
H 1.04800 6.46600 -1.03600
H 0.60800 0.50100 -4.89100
H -0.69200 -2.15600 -4.54700
H -1.26700 0.74000 -6.12900
H -2.20400 0.71400 -4.59600
H -1.96700 -0.72000 -5.45300
H 1.35600 -1.75900 -5.96700
H 1.45200 -3.15700 -4.90200
H 2.71400 -0.52200 -4.79800
H 3.48700 -2.12100 -4.52900
H 2.49500 -1.30300 -3.24000
H 0.86700 -6.33300 -0.08400
H 0.40400 -5.64200 -1.68000
H -0.89100 -5.99900 -0.46300
H -1.28300 -3.58100 4.02800
H 0.69800 -4.47800 7.75500
H 0.83300 -2.61900 7.68000
H 2.00000 -3.75400 6.97600
Mg 15.76199 1.42364 1.20638
C 13.47888 -1.17182 2.17076
C 13.06412 3.49452 0.94651
C 17.68154 3.60050 -0.07583
C 18.06514 -1.07771 0.44190
N 13.60162 1.08843 1.54207
C 12.85779 0.07792 1.96626
C 11.37901 0.44694 2.26055
C 11.25859 1.73485 1.30889
C 12.72518 2.16065 1.28711
C 10.83839 1.39625 -0.11172
C 11.14465 0.82133 3.76618
C 9.67599 0.89179 4.19024
H 9.31934 0.45922 5.53863
N 15.52465 3.38312 0.99975
C 14.35846 4.05925 0.93565
C 14.72263 5.47388 0.76136
C 16.19507 5.55813 0.56256
C 16.52881 4.15130 0.46489
C 13.72533 6.59041 0.87173
C 17.14380 6.71403 0.46247
O 18.34832 6.56284 0.05125
C 16.59383 8.04215 0.77086
N 17.52547 1.28064 0.11457
C 18.18701 2.38352 -0.27779
C 19.56001 2.03811 -0.80309
C 19.77646 0.49210 -0.45582
C 18.39496 0.17467 0.15745
C 19.77406 2.25790 -2.30051
C 21.04806 0.12471 0.35702
C 20.94589 0.68624 1.75689
N 15.86867 -0.72026 1.45202
C 16.91332 -1.57536 1.03775
C 16.48028 -2.95952 1.31880
C 15.19412 -2.81391 1.86016
C 14.84181 -1.43760 1.89410
C 17.22319 -4.13862 1.02908
C 14.05014 -3.51228 2.40079
O 13.80645 -4.68122 2.69734
C 12.83836 -2.48940 2.50888
C 12.22375 -2.63995 3.87347
O 12.86732 -2.33666 4.89349
O 10.91215 -2.90821 3.73885
C 10.25627 -3.05530 5.06549
H 12.26930 4.16331 0.61503
H 18.42506 4.31776 -0.43108
H 18.76545 -1.90722 0.32291
H 10.65593 -0.30340 1.96403
H 10.64415 2.50681 1.76484
H 10.80456 0.32986 -0.27851
H 11.57723 1.85649 -0.75463
H 9.88760 1.88184 -0.34947
H 11.43634 1.86755 3.92457
H 11.67567 0.15013 4.41280
H 9.01069 0.43070 3.45015
H 9.37012 1.94065 4.20892
H 12.69549 6.21274 0.85776
H 13.80887 7.18546 -0.04413
H 13.91089 7.23744 1.73173
H 15.76207 8.25262 0.10278
H 17.44342 8.72663 0.73133
H 16.18443 8.02394 1.78707
H 20.32347 2.62095 -0.30257
H 19.86523 -0.12110 -1.36463
H 20.61841 2.93643 -2.52576
H 18.85509 2.64080 -2.72410
H 19.93639 1.35177 -2.88171
H 21.93199 0.58005 -0.09628
H 21.22992 -0.94325 0.41521
H 21.27950 1.72083 1.63274
H 21.59684 0.14055 2.43699
H 19.90337 0.71432 2.09456
H 17.13288 -4.78365 1.89296
H 18.26399 -3.90908 0.81040
H 16.68697 -4.49479 0.14540
H 12.13296 -2.73192 1.71316
H 9.76884 -4.03511 5.07404
H 9.60528 -2.16786 5.17694
H 10.89739 -3.13042 5.93599

