%nproc=24
%mem=175gb
#p cam-b3lyp/Def2SVP td=(nstates=5)

TDDFT excited states in gaussian

0 1
Mg 10.51887 0.93946 0.79710
C 10.60540 0.69269 -2.78210
C 9.93296 -2.42010 0.86536
C 9.98999 1.19550 3.91514
C 9.97133 4.35934 0.40933
N 10.31746 -0.56046 -0.81595
C 10.43062 -0.54864 -2.13557
C 10.43242 -1.95455 -2.79358
C 9.65251 -2.75937 -1.64342
C 10.01398 -1.88447 -0.44484
C 8.14241 -2.73804 -1.81220
C 11.88312 -2.51434 -3.00359
C 11.97398 -3.73877 -3.91698
H 13.14119 -3.87540 -4.78383
N 10.51944 -0.44620 2.21784
C 10.28447 -1.76653 2.06687
C 10.38019 -2.34887 3.41441
C 10.52781 -1.23956 4.39541
C 10.32617 -0.09433 3.53061
C 10.40841 -3.82937 3.66093
C 10.79232 -1.21411 5.87039
O 10.64445 -0.14559 6.56266
C 11.13909 -2.49833 6.49650
N 9.83932 2.50202 1.98831
C 9.75047 2.36569 3.32302
C 9.50491 3.69698 3.99217
C 9.68899 4.79521 2.84431
C 9.93199 3.86203 1.63787
C 8.13438 3.86988 4.64650
C 10.71079 5.93303 3.11627
C 12.11301 5.36935 3.15387
N 10.50297 2.33492 -0.85229
C 10.22551 3.71839 -0.79648
C 10.22148 4.21806 -2.18671
C 10.47613 3.07715 -2.96258
C 10.60810 1.94265 -2.11702
C 9.95509 5.55734 -2.58856
C 10.65276 2.57271 -4.30535
O 10.73381 3.08369 -5.42163
C 10.61878 0.98434 -4.25702
C 11.78048 0.47018 -5.06237
O 12.94887 0.68268 -4.69315
O 11.32287 -0.36761 -6.01057
C 12.43914 -0.91232 -6.82852
H 9.52164 -3.42196 0.99177
H 9.90548 1.35959 4.99190
H 9.90556 5.43127 0.21109
H 9.88752 -2.01958 -3.72773
H 10.05558 -3.76115 -1.51961
H 7.83591 -2.08363 -2.61466
H 7.74572 -2.38978 -0.86753
H 7.76315 -3.75577 -1.94151
H 12.23649 -2.95526 -2.06260
H 12.53970 -1.74596 -3.36292
H 11.05081 -3.89665 -4.48775
H 12.05927 -4.63167 -3.29291
H 10.11615 -4.39188 2.76563
H 9.61910 -4.04749 4.38845
H 11.36434 -4.17120 4.06345
H 10.33508 -3.21088 6.32826
H 11.37905 -2.26181 7.53494
H 12.02712 -2.90227 5.99766
H 10.23429 3.87817 4.77209
H 8.75153 5.33356 2.64136
H 8.19298 4.12387 5.72173
H 7.56941 2.95869 4.50126
H 7.49202 4.61643 4.18257
H 10.52904 6.37875 4.09732
H 10.66961 6.73422 2.38592
H 12.20124 4.99534 4.17828
H 12.84492 6.14937 2.95406
H 12.21008 4.51035 2.47982
H 10.68621 5.80634 -3.34616
H 10.00589 6.24301 -1.74533
H 8.93557 5.44802 -2.96789
H 9.66115 0.66445 -4.66954
H 12.21195 -0.68073 -7.87372
H 12.51613 -1.98136 -6.55471
H 13.41363 -0.45151 -6.71679

