%nproc=24
%mem=175gb
#p cam-b3lyp/Def2SVP td=(nstates=5)

TDDFT excited states in gaussian

0 1
Mg 0.00000 0.00000 0.00000
C -0.21700 -2.21800 2.80100
C -1.25500 2.44200 2.02600
C -0.24500 1.85000 -2.56400
C 0.14600 -2.82400 -2.03700
N -0.61700 -0.00900 2.12600
C -0.59400 -0.90800 3.10500
C -0.93600 -0.30900 4.50200
C -1.77300 0.96400 4.03200
C -1.15500 1.16800 2.66000
C -3.26300 0.68500 3.86300
C 0.34500 0.11000 5.29900
C 0.12400 0.39700 6.78700
H 1.16800 0.03300 7.73300
N -0.18500 1.96100 -0.15200
C -0.70300 2.80000 0.77700
C -0.62000 4.15600 0.19300
C -0.18700 4.01500 -1.22500
C -0.21400 2.58300 -1.38000
C -0.88700 5.40600 0.97400
C 0.18100 5.01300 -2.27700
O 0.30300 4.69000 -3.50800
C 0.31000 6.41400 -1.83700
N -0.26500 -0.41300 -2.02900
C -0.27900 0.56900 -2.93700
C -0.19600 0.02400 -4.33200
C 0.12400 -1.53300 -4.18000
C 0.08600 -1.63200 -2.63500
C -1.45100 0.20500 -5.19700
C 1.37300 -2.07000 -4.92300
C 2.62600 -1.49000 -4.30600
N 0.15000 -2.14400 0.30300
C 0.17300 -3.13600 -0.68800
C 0.17300 -4.43800 0.00400
C 0.13300 -4.11100 1.35800
C 0.08300 -2.69500 1.50200
C 0.14900 -5.71500 -0.62300
C 0.09600 -4.62900 2.71600
O 0.20800 -5.74700 3.22100
C -0.25500 -3.42800 3.70100
C 0.71700 -3.48200 4.84800
O 1.93100 -3.25500 4.66900
O 0.03800 -3.55600 6.00300
C 0.94300 -3.58300 7.18300
H -1.85900 3.22000 2.49700
H -0.21800 2.45300 -3.47400
H 0.27600 -3.74700 -2.60500
H -1.55400 -0.94900 5.13200
H -1.58500 1.83100 4.66500
H -3.48400 -0.37700 3.96900
H -3.51100 1.02700 2.85800
H -3.85200 1.30100 4.54300
H 0.66900 1.09600 4.96600
H 1.13000 -0.63900 5.18900
H -0.84400 0.02600 7.12500
H 0.06200 1.47700 6.92100
H -1.34400 5.18600 1.93800
H -1.65100 5.96300 0.43200
H 0.00700 6.02000 1.08400
H -0.63500 6.74400 -1.40500
H 0.66500 6.97000 -2.70400
H 1.04800 6.46600 -1.03600
H 0.60800 0.50100 -4.89100
H -0.69200 -2.15600 -4.54700
H -1.26700 0.74000 -6.12900
H -2.20400 0.71400 -4.59600
H -1.96700 -0.72000 -5.45300
H 1.35600 -1.75900 -5.96700
H 1.45200 -3.15700 -4.90200
H 2.71400 -0.52200 -4.79800
H 3.48700 -2.12100 -4.52900
H 2.49500 -1.30300 -3.24000
H 0.86700 -6.33300 -0.08400
H 0.40400 -5.64200 -1.68000
H -0.89100 -5.99900 -0.46300
H -1.28300 -3.58100 4.02800
H 0.69800 -4.47800 7.75500
H 0.83300 -2.61900 7.68000
H 2.00000 -3.75400 6.97600
Mg 7.89214 0.71361 0.59483
C 10.31432 -1.43287 2.14553
C 9.44708 3.33088 2.13323
C 5.51603 2.57325 -0.38665
C 5.89596 -2.10525 0.13118
N 9.64508 0.80968 1.94027
C 10.52312 -0.06335 2.41060
C 11.73481 0.57371 3.14238
C 11.05695 1.96802 3.56104
C 10.00407 2.06851 2.45922
C 10.34222 1.91136 4.90093
C 12.96066 0.79463 2.18817
C 14.27628 1.12387 2.89705
H 15.51997 0.60962 2.33025
N 7.79330 2.68836 0.42395
C 8.51294 3.60145 1.10926
C 8.05377 4.91542 0.63300
C 6.88902 4.70646 -0.26944
C 6.66980 3.28499 -0.09208
C 8.75708 6.19651 0.97591
C 6.09482 5.63502 -1.13733
O 4.97550 5.28263 -1.65285
C 6.61984 6.99981 -1.28968
N 5.89566 0.33599 0.15457
C 5.09203 1.31208 -0.30300
C 3.78540 0.75000 -0.81011
C 3.97610 -0.83780 -0.82092
C 5.39049 -0.92699 -0.20697
C 2.54503 1.10779 0.00834
C 3.70573 -1.56998 -2.16386
C 4.75319 -1.18273 -3.18280
N 8.12001 -1.41666 0.87418
C 7.14970 -2.41601 0.64204
C 7.73162 -3.69931 1.08579
C 9.00148 -3.35139 1.57046
C 9.18933 -1.94737 1.45674
C 7.07823 -4.96355 1.05596
C 10.22162 -3.85116 2.16223
O 10.67152 -4.96864 2.41237
C 11.07678 -2.61446 2.67762
C 12.49388 -2.80233 2.20958
O 12.76757 -2.77672 0.99671
O 13.31782 -2.76357 3.27259
C 14.73585 -2.93440 2.85807
H 9.71795 4.19127 2.74580
H 4.70494 3.15359 -0.83254
H 5.37482 -3.04359 -0.07034
H 12.06370 0.04004 4.02601
H 11.76516 2.78926 3.48774
H 10.30716 0.90723 5.29670
H 9.34183 2.28049 4.71653
H 10.79898 2.61586 5.60191
H 12.81282 1.72498 1.62485
H 13.09931 -0.05169 1.54385
H 14.22861 0.91443 3.97260
H 14.44006 2.20278 2.84109
H 9.47987 6.05350 1.78864
H 8.00442 6.87156 1.39743
H 9.21162 6.67364 0.10505
H 6.70005 7.46721 -0.31113
H 5.96510 7.48541 -2.01590
H 7.63636 6.94046 -1.69439
H 3.58548 1.08681 -1.81991
H 3.29500 -1.33480 -0.11456
H 1.76032 1.61243 -0.58635
H 2.85176 1.72971 0.83879
H 2.06640 0.26959 0.51187
H 2.74219 -1.26088 -2.57642
H 3.68411 -2.65058 -2.06993
H 4.37333 -0.23661 -3.57986
H 4.82591 -1.93750 -3.96324
H 5.71477 -0.97492 -2.69924
H 7.80097 -5.67891 0.68664
H 6.18869 -4.93668 0.43004
H 6.83181 -5.08077 2.11464
H 11.00400 -2.59655 3.76572
H 15.13535 -3.77974 3.42683
H 15.21415 -1.94959 3.01658
H 14.92536 -3.25565 1.84055

