%nproc=24
%mem=175gb
#p cam-b3lyp/Def2SVP td=(nstates=5)

TDDFT excited states in gaussian

0 1
Mg 0.00000 0.00000 0.00000
C -0.21700 -2.21800 2.80100
C -1.25500 2.44200 2.02600
C -0.24500 1.85000 -2.56400
C 0.14600 -2.82400 -2.03700
N -0.61700 -0.00900 2.12600
C -0.59400 -0.90800 3.10500
C -0.93600 -0.30900 4.50200
C -1.77300 0.96400 4.03200
C -1.15500 1.16800 2.66000
C -3.26300 0.68500 3.86300
C 0.34500 0.11000 5.29900
C 0.12400 0.39700 6.78700
H 1.16800 0.03300 7.73300
N -0.18500 1.96100 -0.15200
C -0.70300 2.80000 0.77700
C -0.62000 4.15600 0.19300
C -0.18700 4.01500 -1.22500
C -0.21400 2.58300 -1.38000
C -0.88700 5.40600 0.97400
C 0.18100 5.01300 -2.27700
O 0.30300 4.69000 -3.50800
C 0.31000 6.41400 -1.83700
N -0.26500 -0.41300 -2.02900
C -0.27900 0.56900 -2.93700
C -0.19600 0.02400 -4.33200
C 0.12400 -1.53300 -4.18000
C 0.08600 -1.63200 -2.63500
C -1.45100 0.20500 -5.19700
C 1.37300 -2.07000 -4.92300
C 2.62600 -1.49000 -4.30600
N 0.15000 -2.14400 0.30300
C 0.17300 -3.13600 -0.68800
C 0.17300 -4.43800 0.00400
C 0.13300 -4.11100 1.35800
C 0.08300 -2.69500 1.50200
C 0.14900 -5.71500 -0.62300
C 0.09600 -4.62900 2.71600
O 0.20800 -5.74700 3.22100
C -0.25500 -3.42800 3.70100
C 0.71700 -3.48200 4.84800
O 1.93100 -3.25500 4.66900
O 0.03800 -3.55600 6.00300
C 0.94300 -3.58300 7.18300
H -1.85900 3.22000 2.49700
H -0.21800 2.45300 -3.47400
H 0.27600 -3.74700 -2.60500
H -1.55400 -0.94900 5.13200
H -1.58500 1.83100 4.66500
H -3.48400 -0.37700 3.96900
H -3.51100 1.02700 2.85800
H -3.85200 1.30100 4.54300
H 0.66900 1.09600 4.96600
H 1.13000 -0.63900 5.18900
H -0.84400 0.02600 7.12500
H 0.06200 1.47700 6.92100
H -1.34400 5.18600 1.93800
H -1.65100 5.96300 0.43200
H 0.00700 6.02000 1.08400
H -0.63500 6.74400 -1.40500
H 0.66500 6.97000 -2.70400
H 1.04800 6.46600 -1.03600
H 0.60800 0.50100 -4.89100
H -0.69200 -2.15600 -4.54700
H -1.26700 0.74000 -6.12900
H -2.20400 0.71400 -4.59600
H -1.96700 -0.72000 -5.45300
H 1.35600 -1.75900 -5.96700
H 1.45200 -3.15700 -4.90200
H 2.71400 -0.52200 -4.79800
H 3.48700 -2.12100 -4.52900
H 2.49500 -1.30300 -3.24000
H 0.86700 -6.33300 -0.08400
H 0.40400 -5.64200 -1.68000
H -0.89100 -5.99900 -0.46300
H -1.28300 -3.58100 4.02800
H 0.69800 -4.47800 7.75500
H 0.83300 -2.61900 7.68000
H 2.00000 -3.75400 6.97600
Mg 13.12888 1.18599 1.00098
C 11.15209 -1.61033 -0.07232
C 11.26069 3.12087 -1.09682
C 15.13315 3.57624 1.58155
C 15.51675 -1.10180 2.10087
N 11.45085 0.70247 -0.35647
C 10.74463 -0.38287 -0.63512
C 9.48556 -0.12503 -1.50566
C 9.95639 1.23836 -2.21159
C 10.92505 1.74422 -1.14459
C 10.73620 1.01276 -3.49625
C 8.19482 0.09219 -0.64033
C 6.88034 0.04155 -1.42221
H 5.70622 -0.53525 -0.77321
N 12.90861 3.14022 0.73442
C 12.08940 3.75432 -0.14482
C 12.31308 5.19693 0.03685
C 13.45037 5.38030 0.97899
C 13.89802 4.00942 1.12181
C 11.43549 6.24161 -0.58918
C 14.04564 6.59083 1.63204
O 15.17962 6.54550 2.22774
C 13.30645 7.85172 1.47311
N 15.13576 1.24371 1.54082
C 15.75307 2.41335 1.78331
C 17.10508 2.19496 2.41951
C 17.16518 0.63732 2.77687
C 15.81415 0.18805 2.17831
C 18.31282 2.56649 1.55944
C 17.48053 0.26525 4.25159
C 16.33651 0.68572 5.14591
N 13.25156 -0.96242 1.19419
C 14.35384 -1.71594 1.65382
C 14.00268 -3.14214 1.49544
C 12.71939 -3.11910 0.92876
C 12.30854 -1.77357 0.72813
C 14.84379 -4.24605 1.81170
C 11.62321 -3.92714 0.44485
O 11.36677 -5.13045 0.44063
C 10.61126 -2.98711 -0.34172
C 9.21981 -3.29927 0.13675
O 8.88617 -3.05870 1.31039
O 8.45325 -3.62525 -0.91990
C 7.06085 -3.93266 -0.49738
H 10.88884 3.77328 -1.88736
H 15.82038 4.36356 1.89985
H 16.16791 -1.87666 2.51106
H 9.28821 -0.88261 -2.25460
H 9.12554 1.92895 -2.33051
H 10.94755 -0.03337 -3.66082
H 11.65612 1.57150 -3.38395
H 10.20975 1.46567 -4.34127
H 8.16720 1.13322 -0.29359
H 8.15894 -0.60686 0.17249
H 7.01307 -0.38348 -2.42455
H 6.54702 1.06559 -1.60731
H 10.78488 5.81097 -1.36032
H 12.09291 6.92412 -1.13859
H 10.86954 6.81381 0.14903
H 13.20223 8.07829 0.41469
H 13.84051 8.58249 2.08355
H 12.29312 7.71524 1.86701
H 17.19986 2.76901 3.33307
H 17.94963 0.11841 2.20660
H 18.97857 3.30859 2.03917
H 17.95367 2.93661 0.60836
H 18.94103 1.72954 1.25931
H 18.36228 0.80918 4.59916
H 17.67576 -0.79183 4.39808
H 16.54347 1.74416 5.33017
H 16.34463 0.11486 6.07224
H 15.37921 0.62452 4.61536
H 14.22476 -4.97370 2.31947
H 15.68626 -3.94010 2.42847
H 15.15729 -4.54615 0.80824
H 10.73376 -3.19184 -1.40599
H 6.82717 -4.93419 -0.87158
H 6.44256 -3.09679 -0.87526
H 6.87419 -4.05427 0.56320

