%nproc=24
%mem=175gb
#p cam-b3lyp/Def2SVP td=(nstates=5)

TDDFT excited states in gaussian

0 1
Mg 0.00000 0.00000 0.00000
C -0.21700 -2.21800 2.80100
C -1.25500 2.44200 2.02600
C -0.24500 1.85000 -2.56400
C 0.14600 -2.82400 -2.03700
N -0.61700 -0.00900 2.12600
C -0.59400 -0.90800 3.10500
C -0.93600 -0.30900 4.50200
C -1.77300 0.96400 4.03200
C -1.15500 1.16800 2.66000
C -3.26300 0.68500 3.86300
C 0.34500 0.11000 5.29900
C 0.12400 0.39700 6.78700
H 1.16800 0.03300 7.73300
N -0.18500 1.96100 -0.15200
C -0.70300 2.80000 0.77700
C -0.62000 4.15600 0.19300
C -0.18700 4.01500 -1.22500
C -0.21400 2.58300 -1.38000
C -0.88700 5.40600 0.97400
C 0.18100 5.01300 -2.27700
O 0.30300 4.69000 -3.50800
C 0.31000 6.41400 -1.83700
N -0.26500 -0.41300 -2.02900
C -0.27900 0.56900 -2.93700
C -0.19600 0.02400 -4.33200
C 0.12400 -1.53300 -4.18000
C 0.08600 -1.63200 -2.63500
C -1.45100 0.20500 -5.19700
C 1.37300 -2.07000 -4.92300
C 2.62600 -1.49000 -4.30600
N 0.15000 -2.14400 0.30300
C 0.17300 -3.13600 -0.68800
C 0.17300 -4.43800 0.00400
C 0.13300 -4.11100 1.35800
C 0.08300 -2.69500 1.50200
C 0.14900 -5.71500 -0.62300
C 0.09600 -4.62900 2.71600
O 0.20800 -5.74700 3.22100
C -0.25500 -3.42800 3.70100
C 0.71700 -3.48200 4.84800
O 1.93100 -3.25500 4.66900
O 0.03800 -3.55600 6.00300
C 0.94300 -3.58300 7.18300
H -1.85900 3.22000 2.49700
H -0.21800 2.45300 -3.47400
H 0.27600 -3.74700 -2.60500
H -1.55400 -0.94900 5.13200
H -1.58500 1.83100 4.66500
H -3.48400 -0.37700 3.96900
H -3.51100 1.02700 2.85800
H -3.85200 1.30100 4.54300
H 0.66900 1.09600 4.96600
H 1.13000 -0.63900 5.18900
H -0.84400 0.02600 7.12500
H 0.06200 1.47700 6.92100
H -1.34400 5.18600 1.93800
H -1.65100 5.96300 0.43200
H 0.00700 6.02000 1.08400
H -0.63500 6.74400 -1.40500
H 0.66500 6.97000 -2.70400
H 1.04800 6.46600 -1.03600
H 0.60800 0.50100 -4.89100
H -0.69200 -2.15600 -4.54700
H -1.26700 0.74000 -6.12900
H -2.20400 0.71400 -4.59600
H -1.96700 -0.72000 -5.45300
H 1.35600 -1.75900 -5.96700
H 1.45200 -3.15700 -4.90200
H 2.71400 -0.52200 -4.79800
H 3.48700 -2.12100 -4.52900
H 2.49500 -1.30300 -3.24000
H 0.86700 -6.33300 -0.08400
H 0.40400 -5.64200 -1.68000
H -0.89100 -5.99900 -0.46300
H -1.28300 -3.58100 4.02800
H 0.69800 -4.47800 7.75500
H 0.83300 -2.61900 7.68000
H 2.00000 -3.75400 6.97600
Mg 7.89118 0.70672 0.59260
C 7.66267 3.14934 -2.02664
C 7.40425 -1.68026 -1.79483
C 7.63764 -1.43131 2.92327
C 7.21934 3.27200 2.85394
N 7.58617 0.84153 -1.59396
C 7.58005 1.81895 -2.48780
C 7.56056 1.34020 -3.96427
C 6.90896 -0.11004 -3.73823
C 7.35291 -0.35564 -2.29766
C 5.38978 -0.09955 -3.77465
C 9.00107 1.23350 -4.57710
C 9.04244 1.07157 -6.09823
H 10.13037 1.70705 -6.83650
N 8.05652 -1.27040 0.54526
C 7.84451 -2.07957 -0.51379
C 8.07643 -3.44833 -0.02709
C 8.28165 -3.39396 1.44588
C 7.97249 -2.00186 1.70389
C 8.16644 -4.63360 -0.94385
C 8.67672 -4.42729 2.45699
O 8.56292 -4.21549 3.71597
C 9.11267 -5.72825 1.92885
N 7.27957 0.84742 2.57464
C 7.31459 -0.22373 3.38664
C 7.09440 0.17564 4.82623
C 7.14511 1.77401 4.84123
C 7.30383 2.03638 3.32751
C 5.78399 -0.29763 5.45491
C 8.15625 2.43693 5.81632
C 9.57083 2.14341 5.37113
N 7.68980 2.85553 0.49220
C 7.38138 3.73389 1.55402
C 7.23915 5.08509 0.97398
C 7.45369 4.89378 -0.39929
C 7.69147 3.51713 -0.65965
C 6.90187 6.26718 1.69163
C 7.52257 5.54174 -1.68929
O 7.48932 6.70852 -2.07821
C 7.53576 4.42193 -2.81722
C 8.63387 4.75509 -3.78968
O 9.82455 4.72936 -3.43159
O 8.11567 4.83577 -5.02876
C 9.16824 5.15346 -6.03025
H 7.03302 -2.48910 -2.42480
H 7.64575 -2.10986 3.77942
H 7.10726 4.14075 3.50616
H 6.93595 1.92962 -4.62473
H 7.34828 -0.84855 -4.40378
H 4.99500 0.90412 -3.82900
H 5.07027 -0.58279 -2.86063
H 5.02792 -0.73049 -4.59154
H 9.44920 0.27841 -4.27423
H 9.60186 2.07333 -4.28663
H 8.07634 1.30169 -6.56367
H 9.20737 0.01666 -6.33055
H 7.81021 -4.39003 -1.95240
H 7.45177 -5.37762 -0.57567
H 9.16348 -5.07894 -0.95989
H 8.31625 -6.15868 1.32644
H 9.43844 -6.30234 2.79842
H 9.96287 -5.56595 1.25696
H 7.88571 -0.20702 5.45908
H 6.17909 2.20957 5.13607
H 5.93203 -0.90182 6.36985
H 5.23295 -0.86001 4.71287
H 5.08275 0.49435 5.71226
H 8.05140 2.01165 6.81747
H 8.02817 3.51038 5.90739
H 9.76068 1.15095 5.79073
H 10.26063 2.88146 5.77550
H 9.63005 2.05680 4.27996
H 7.55508 7.04922 1.32800
H 7.00971 6.12509 2.76492
H 5.85572 6.38303 1.39597
H 6.55390 4.42371 -3.29212
H 8.84200 6.05237 -6.56243
H 9.29819 4.23266 -6.62941
H 10.13608 5.46787 -5.65758

