%nproc=24
%mem=175gb
#p cam-b3lyp/Def2SVP td=(nstates=5)

TDDFT excited states in gaussian

0 1
Mg 8.93423 0.81304 0.68471
C 10.73110 -0.35755 3.56222
C 6.30887 1.44759 2.76784
C 7.17367 1.42594 -1.88281
C 11.21437 -0.94286 -1.28086
N 8.67485 0.53887 2.86412
C 9.44774 0.14355 3.86447
C 8.83964 0.36857 5.27484
C 7.28652 0.38663 4.86696
C 7.41950 0.85370 3.41892
C 6.64813 -0.99242 4.86730
C 9.28365 1.73469 5.90617
C 8.98088 1.88185 7.39897
H 9.92793 2.61779 8.23201
N 7.22241 1.80137 0.50737
C 6.28385 1.98072 1.46037
C 5.20821 2.75724 0.82462
C 5.51329 2.88022 -0.62677
C 6.66276 2.00374 -0.72970
C 4.07603 3.36551 1.60024
C 4.86843 3.64824 -1.74054
O 5.15520 3.42147 -2.96902
C 3.82353 4.60824 -1.35575
N 9.02931 0.14606 -1.28213
C 8.17505 0.60946 -2.21133
C 8.60604 0.20203 -3.60008
C 10.06537 -0.42938 -3.42911
C 10.19439 -0.35586 -1.89179
C 7.69787 -0.80109 -4.31098
C 11.20146 0.17908 -4.29614
C 11.48589 1.59631 -3.85348
N 10.76808 -0.27664 1.02772
C 11.54864 -0.95661 0.06727
C 12.63576 -1.64196 0.79588
C 12.39695 -1.32955 2.14268
C 11.23085 -0.52418 2.24798
C 13.63744 -2.46740 0.21157
C 12.86007 -1.50673 3.50018
O 13.84963 -2.02047 4.02036
C 11.72988 -0.99004 4.49119
C 12.38270 -0.11052 5.52211
O 12.90520 0.96884 5.19258
O 12.09325 -0.58042 6.74921
C 12.70954 0.26520 7.80606
H 5.35246 1.47103 3.29092
H 6.66582 1.69751 -2.81116
H 12.02241 -1.42991 -1.83090
H 9.02871 -0.42878 5.98354
H 6.73262 1.11520 5.45326
H 7.37642 -1.77348 5.02758
H 6.18362 -1.10178 3.89605
H 5.83405 -1.03078 5.59676
H 8.65017 2.53677 5.50602
H 10.32615 1.91517 5.72940
H 8.72483 0.92218 7.86418
H 8.07622 2.48424 7.51182
H 4.02804 2.96705 2.62119
H 3.14706 3.02353 1.13126
H 4.09647 4.45735 1.58903
H 3.03013 4.08567 -0.82669
H 3.54566 5.12285 -2.27761
H 4.25234 5.32751 -0.64908
H 8.67021 1.06350 -4.25341
H 10.08133 -1.49654 -3.69512
H 7.32288 -0.43590 -5.28571
H 6.87384 -1.04181 -3.65253
H 8.14194 -1.77843 -4.49214
H 10.88998 0.23718 -5.34197
H 12.12215 -0.39398 -4.26570
H 10.72282 2.17719 -4.38017
H 12.48774 1.89740 -4.15295
H 11.30775 1.71610 -2.77851
H 14.57506 -2.19730 0.67893
H 13.67882 -2.33859 -0.86800
H 13.26434 -3.45575 0.49304
H 11.26092 -1.86702 4.93903
H 13.31783 -0.39652 8.43040
H 11.86841 0.78904 8.29782
H 13.44491 0.99834 7.49591

