%nproc=24
%mem=175gb
#p cam-b3lyp/Def2SVP td=(nstates=5)

TDDFT excited states in gaussian

0 1
Mg 0.00000 0.00000 0.00000
C -0.21700 -2.21800 2.80100
C -1.25500 2.44200 2.02600
C -0.24500 1.85000 -2.56400
C 0.14600 -2.82400 -2.03700
N -0.61700 -0.00900 2.12600
C -0.59400 -0.90800 3.10500
C -0.93600 -0.30900 4.50200
C -1.77300 0.96400 4.03200
C -1.15500 1.16800 2.66000
C -3.26300 0.68500 3.86300
C 0.34500 0.11000 5.29900
C 0.12400 0.39700 6.78700
H 1.16800 0.03300 7.73300
N -0.18500 1.96100 -0.15200
C -0.70300 2.80000 0.77700
C -0.62000 4.15600 0.19300
C -0.18700 4.01500 -1.22500
C -0.21400 2.58300 -1.38000
C -0.88700 5.40600 0.97400
C 0.18100 5.01300 -2.27700
O 0.30300 4.69000 -3.50800
C 0.31000 6.41400 -1.83700
N -0.26500 -0.41300 -2.02900
C -0.27900 0.56900 -2.93700
C -0.19600 0.02400 -4.33200
C 0.12400 -1.53300 -4.18000
C 0.08600 -1.63200 -2.63500
C -1.45100 0.20500 -5.19700
C 1.37300 -2.07000 -4.92300
C 2.62600 -1.49000 -4.30600
N 0.15000 -2.14400 0.30300
C 0.17300 -3.13600 -0.68800
C 0.17300 -4.43800 0.00400
C 0.13300 -4.11100 1.35800
C 0.08300 -2.69500 1.50200
C 0.14900 -5.71500 -0.62300
C 0.09600 -4.62900 2.71600
O 0.20800 -5.74700 3.22100
C -0.25500 -3.42800 3.70100
C 0.71700 -3.48200 4.84800
O 1.93100 -3.25500 4.66900
O 0.03800 -3.55600 6.00300
C 0.94300 -3.58300 7.18300
H -1.85900 3.22000 2.49700
H -0.21800 2.45300 -3.47400
H 0.27600 -3.74700 -2.60500
H -1.55400 -0.94900 5.13200
H -1.58500 1.83100 4.66500
H -3.48400 -0.37700 3.96900
H -3.51100 1.02700 2.85800
H -3.85200 1.30100 4.54300
H 0.66900 1.09600 4.96600
H 1.13000 -0.63900 5.18900
H -0.84400 0.02600 7.12500
H 0.06200 1.47700 6.92100
H -1.34400 5.18600 1.93800
H -1.65100 5.96300 0.43200
H 0.00700 6.02000 1.08400
H -0.63500 6.74400 -1.40500
H 0.66500 6.97000 -2.70400
H 1.04800 6.46600 -1.03600
H 0.60800 0.50100 -4.89100
H -0.69200 -2.15600 -4.54700
H -1.26700 0.74000 -6.12900
H -2.20400 0.71400 -4.59600
H -1.96700 -0.72000 -5.45300
H 1.35600 -1.75900 -5.96700
H 1.45200 -3.15700 -4.90200
H 2.71400 -0.52200 -4.79800
H 3.48700 -2.12100 -4.52900
H 2.49500 -1.30300 -3.24000
H 0.86700 -6.33300 -0.08400
H 0.40400 -5.64200 -1.68000
H -0.89100 -5.99900 -0.46300
H -1.28300 -3.58100 4.02800
H 0.69800 -4.47800 7.75500
H 0.83300 -2.61900 7.68000
H 2.00000 -3.75400 6.97600
Mg 31.53914 2.84327 2.40233
C 31.16131 0.62445 5.19753
C 30.42579 5.34865 4.43165
C 31.43076 4.72677 -0.14877
C 31.51434 0.03093 0.34421
N 30.90707 2.86005 4.52188
C 30.86411 1.96938 5.50127
C 30.55912 2.56690 6.90110
C 29.79974 3.90201 6.43241
C 30.43782 4.07564 5.05569
C 28.30408 3.70931 6.24477
C 31.86415 2.90074 7.70575
C 31.64583 3.19622 9.19128
H 32.66460 2.76390 10.14399
N 31.48155 4.82251 2.26878
C 31.01841 5.68748 3.19539
C 31.17629 7.02755 2.60935
C 31.61743 6.87265 1.19651
C 31.50450 5.43627 1.04107
C 30.99177 8.28909 3.40174
C 32.05475 7.85603 0.15348
O 32.16572 7.52486 -1.07975
C 32.25903 9.24090 0.60279
N 31.26870 2.45968 0.37698
C 31.31696 3.45356 -0.52735
C 31.37234 2.90845 -1.93453
C 31.59616 1.33286 -1.77643
C 31.53975 1.22248 -0.23694
C 30.13523 3.16261 -2.79555
C 32.81458 0.71724 -2.51747
C 34.10071 1.21830 -1.90086
N 31.55634 0.70250 2.69364
C 31.51658 -0.29464 1.69454
C 31.43000 -1.59841 2.38384
C 31.40196 -1.26540 3.74649
C 31.44614 0.14719 3.89529
C 31.33989 -2.86993 1.75041
C 31.33432 -1.78720 5.09254
O 31.36525 -2.91167 5.59088
C 31.04790 -0.58167 6.08805
C 32.00701 -0.69375 7.24133
O 33.22971 -0.55364 7.06245
O 31.31034 -0.73063 8.39183
C 32.21849 -0.83049 9.56534
H 29.87454 6.15709 4.91273
H 31.50178 5.32537 -1.05987
H 31.60121 -0.89766 -0.22399
H 29.90453 1.96440 7.51938
H 30.04592 4.74291 7.07557
H 28.01579 2.67334 6.34372
H 28.08373 4.06985 5.24852
H 27.75146 4.35901 6.92948
H 32.24948 3.87390 7.37527
H 32.59011 2.11875 7.59575
H 30.64845 2.89062 9.53009
H 31.65751 4.27937 9.33502
H 30.50816 8.09117 4.36628
H 30.26891 8.90601 2.85699
H 31.91994 8.85253 3.51881
H 31.33549 9.62091 1.03306
H 32.65518 9.77385 -0.26376
H 33.00420 9.24176 1.40611
H 32.20836 3.32921 -2.47963
H 30.74165 0.75900 -2.16415
H 30.36091 3.69973 -3.73611
H 29.41618 3.71501 -2.20532
H 29.57291 2.27185 -3.07039
H 32.82496 1.03921 -3.56168
H 32.81862 -0.36764 -2.51491
H 34.24707 2.18689 -2.38820
H 34.92118 0.53807 -2.12028
H 33.97626 1.40465 -0.82781
H 32.00723 -3.53234 2.28554
H 31.60090 -2.80822 0.69598
H 30.27864 -3.08686 1.89857
H 30.00903 -0.66260 6.41021
H 31.91034 -1.71358 10.13356
H 32.15200 0.14720 10.07860
H 33.26132 -1.05517 9.37437

