%nproc=24
%mem=175gb
#p cam-b3lyp/Def2SVP td=(nstates=5)

TDDFT excited states in gaussian

0 1
Mg 15.77590 1.42384 1.19798
C 17.42356 -0.69354 3.58145
C 16.38332 4.02798 3.31555
C 13.94376 3.23092 -0.65814
C 14.32419 -1.44762 -0.14104
N 16.78281 1.52788 3.16459
C 17.42430 0.66972 3.94331
C 18.17318 1.32025 5.13727
C 17.30614 2.66635 5.26031
C 16.81747 2.77507 3.81738
C 16.09411 2.52091 6.16539
C 19.67412 1.63232 4.80292
C 20.54355 1.98071 6.01307
H 21.93641 1.54209 6.01881
N 15.65065 3.39887 1.04908
C 15.95950 4.30763 1.99778
C 15.67476 5.62270 1.40308
C 15.01728 5.40910 0.08519
C 14.82198 3.97352 0.11764
C 16.09411 6.91367 2.04415
C 14.61742 6.34400 -1.01584
O 13.84446 5.97148 -1.96799
C 15.08152 7.73392 -0.89657
N 14.17979 0.98815 -0.06098
C 13.59444 1.95153 -0.79391
C 12.66019 1.36193 -1.82345
C 12.92437 -0.21499 -1.79027
C 13.94638 -0.27608 -0.63392
C 11.17200 1.63310 -1.60404
C 13.29096 -0.89566 -3.13747
C 14.64909 -0.42166 -3.60244
N 15.98019 -0.70626 1.49624
C 15.25702 -1.73153 0.84820
C 15.66481 -3.00969 1.46664
C 16.58713 -2.63430 2.45501
C 16.72802 -1.22025 2.46630
C 15.15660 -4.29605 1.13032
C 17.46562 -3.11188 3.49850
O 17.82727 -4.22094 3.88957
C 17.95134 -1.86705 4.35923
C 19.44098 -1.97752 4.53613
O 20.20223 -1.88621 3.55696
O 19.73163 -1.95451 5.84966
C 21.19844 -2.05035 6.07575
H 16.32048 4.86974 4.00575
H 13.36846 3.79845 -1.39328
H 13.99051 -2.39567 -0.56827
H 18.12421 0.76047 6.06357
H 17.93206 3.51735 5.51604
H 15.94946 1.49928 6.48396
H 15.24826 2.85830 5.58080
H 16.17024 3.21039 7.01105
H 19.72877 2.58069 4.25305
H 20.11971 0.82219 4.25907
H 20.05497 1.72104 6.96007
H 20.65600 3.06667 6.05846
H 16.40971 6.76259 3.08385
H 15.19782 7.53874 2.12046
H 16.84863 7.44731 1.46227
H 14.71250 8.15930 0.03366
H 14.77182 8.22574 -1.82074
H 16.17523 7.73309 -0.83021
H 12.89012 1.73601 -2.81355
H 12.03613 -0.76995 -1.45426
H 10.68793 2.13284 -2.46427
H 11.06209 2.22837 -0.70731
H 10.57164 0.75473 -1.37327
H 12.57866 -0.60642 -3.91408
H 13.29091 -1.97942 -3.08792
H 14.42257 0.52576 -4.10060
H 15.08791 -1.13684 -4.29527
H 15.30104 -0.19823 -2.74998
H 16.00589 -4.96490 1.08747
H 14.61734 -4.27594 0.18556
H 14.49053 -4.47074 1.97950
H 17.42223 -1.90134 5.31236
H 21.36420 -2.90418 6.73996
H 21.50912 -1.05565 6.44694
H 21.81969 -2.31745 5.22890

