%nproc=24
%mem=175gb
#p cam-b3lyp/Def2SVP td=(nstates=5)

TDDFT excited states in gaussian

0 1
Mg 0.00000 0.00000 0.00000
C -0.21700 -2.21800 2.80100
C -1.25500 2.44200 2.02600
C -0.24500 1.85000 -2.56400
C 0.14600 -2.82400 -2.03700
N -0.61700 -0.00900 2.12600
C -0.59400 -0.90800 3.10500
C -0.93600 -0.30900 4.50200
C -1.77300 0.96400 4.03200
C -1.15500 1.16800 2.66000
C -3.26300 0.68500 3.86300
C 0.34500 0.11000 5.29900
C 0.12400 0.39700 6.78700
H 1.16800 0.03300 7.73300
N -0.18500 1.96100 -0.15200
C -0.70300 2.80000 0.77700
C -0.62000 4.15600 0.19300
C -0.18700 4.01500 -1.22500
C -0.21400 2.58300 -1.38000
C -0.88700 5.40600 0.97400
C 0.18100 5.01300 -2.27700
O 0.30300 4.69000 -3.50800
C 0.31000 6.41400 -1.83700
N -0.26500 -0.41300 -2.02900
C -0.27900 0.56900 -2.93700
C -0.19600 0.02400 -4.33200
C 0.12400 -1.53300 -4.18000
C 0.08600 -1.63200 -2.63500
C -1.45100 0.20500 -5.19700
C 1.37300 -2.07000 -4.92300
C 2.62600 -1.49000 -4.30600
N 0.15000 -2.14400 0.30300
C 0.17300 -3.13600 -0.68800
C 0.17300 -4.43800 0.00400
C 0.13300 -4.11100 1.35800
C 0.08300 -2.69500 1.50200
C 0.14900 -5.71500 -0.62300
C 0.09600 -4.62900 2.71600
O 0.20800 -5.74700 3.22100
C -0.25500 -3.42800 3.70100
C 0.71700 -3.48200 4.84800
O 1.93100 -3.25500 4.66900
O 0.03800 -3.55600 6.00300
C 0.94300 -3.58300 7.18300
H -1.85900 3.22000 2.49700
H -0.21800 2.45300 -3.47400
H 0.27600 -3.74700 -2.60500
H -1.55400 -0.94900 5.13200
H -1.58500 1.83100 4.66500
H -3.48400 -0.37700 3.96900
H -3.51100 1.02700 2.85800
H -3.85200 1.30100 4.54300
H 0.66900 1.09600 4.96600
H 1.13000 -0.63900 5.18900
H -0.84400 0.02600 7.12500
H 0.06200 1.47700 6.92100
H -1.34400 5.18600 1.93800
H -1.65100 5.96300 0.43200
H 0.00700 6.02000 1.08400
H -0.63500 6.74400 -1.40500
H 0.66500 6.97000 -2.70400
H 1.04800 6.46600 -1.03600
H 0.60800 0.50100 -4.89100
H -0.69200 -2.15600 -4.54700
H -1.26700 0.74000 -6.12900
H -2.20400 0.71400 -4.59600
H -1.96700 -0.72000 -5.45300
H 1.35600 -1.75900 -5.96700
H 1.45200 -3.15700 -4.90200
H 2.71400 -0.52200 -4.79800
H 3.48700 -2.12100 -4.52900
H 2.49500 -1.30300 -3.24000
H 0.86700 -6.33300 -0.08400
H 0.40400 -5.64200 -1.68000
H -0.89100 -5.99900 -0.46300
H -1.28300 -3.58100 4.02800
H 0.69800 -4.47800 7.75500
H 0.83300 -2.61900 7.68000
H 2.00000 -3.75400 6.97600
Mg 13.14646 1.18215 0.99101
C 12.78856 4.30820 -0.73490
C 12.62994 -0.36118 -2.00664
C 13.00769 -1.57854 2.54883
C 12.49761 2.90158 3.95214
N 12.76990 1.97862 -1.03780
C 12.71683 3.18415 -1.58390
C 12.65979 3.18561 -3.13513
C 12.04349 1.71900 -3.35447
C 12.53741 1.05205 -2.07233
C 10.52399 1.69775 -3.34912
C 14.08196 3.31419 -3.78543
C 14.07827 3.63232 -5.28228
H 15.12996 4.49529 -5.81304
N 13.34797 -0.67776 0.32867
C 13.11806 -1.12494 -0.92371
C 13.39136 -2.57008 -0.89140
C 13.64201 -2.96863 0.52035
C 13.31463 -1.73399 1.20489
C 13.47496 -3.41035 -2.13253
C 14.08854 -4.25272 1.15116
O 14.01062 -4.44432 2.41609
C 14.53235 -5.31356 0.23511
N 12.59529 0.68523 2.93308
C 12.67644 -0.58325 3.37162
C 12.49432 -0.65545 4.86896
C 12.51493 0.86053 5.37785
C 12.62064 1.58292 4.01683
C 11.21374 -1.33654 5.35126
C 13.54357 1.21706 6.48576
C 14.94871 1.11546 5.93743
N 12.90098 3.24998 1.56708
C 12.60959 3.74751 2.85613
C 12.42329 5.20737 2.72750
C 12.59789 5.45664 1.35787
C 12.85357 4.23541 0.67762
C 12.08636 6.09932 3.78439
C 12.61352 6.47376 0.33127
O 12.54570 7.70221 0.32442
C 12.61241 5.75894 -1.08838
C 13.67264 6.40734 -1.93574
O 14.87433 6.30534 -1.63217
O 13.11404 6.85309 -3.07576
C 14.12814 7.49451 -3.95440
H 12.25448 -0.94533 -2.84729
H 13.05585 -2.48827 3.15177
H 12.38965 3.52226 4.84420
H 12.00344 3.93281 -3.56486
H 12.47557 1.23538 -4.22670
H 10.10859 2.65748 -3.07988
H 10.24286 0.94656 -2.62268
H 10.14859 1.34081 -4.31245
H 14.55761 2.32519 -3.80472
H 14.67548 4.03932 -3.26336
H 13.09370 3.96809 -5.62988
H 14.25589 2.70618 -5.83431
H 13.08240 -2.87660 -3.00684
H 12.78664 -4.25147 -1.99617
H 14.47931 -3.80077 -2.31001
H 13.72563 -5.55848 -0.45169
H 14.89638 -6.11929 0.87554
H 15.35760 -4.92753 -0.37362
H 13.31243 -1.19292 5.33256
H 11.55058 1.15622 5.81651
H 11.40217 -2.18989 6.02977
H 10.65035 -1.65678 4.48490
H 10.50599 -0.68307 5.85847
H 13.47859 0.50000 7.30780
H 13.39795 2.20557 6.90842
H 15.17066 0.04758 6.02374
H 15.63672 1.71107 6.53403
H 14.97501 1.37257 4.87214
H 12.71267 6.97347 3.66564
H 12.23080 5.63505 4.75771
H 11.02935 6.27169 3.56462
H 11.61616 5.88017 -1.51543
H 13.76811 8.50450 -4.17341
H 14.25664 6.80842 -4.81261
H 15.10111 7.70505 -3.52608

