%nproc=24
%mem=175gb
#p cam-b3lyp/Def2SVP td=(nstates=5)

TDDFT excited states in gaussian

0 1
Mg 0.00000 0.00000 0.00000
C -0.21700 -2.21800 2.80100
C -1.25500 2.44200 2.02600
C -0.24500 1.85000 -2.56400
C 0.14600 -2.82400 -2.03700
N -0.61700 -0.00900 2.12600
C -0.59400 -0.90800 3.10500
C -0.93600 -0.30900 4.50200
C -1.77300 0.96400 4.03200
C -1.15500 1.16800 2.66000
C -3.26300 0.68500 3.86300
C 0.34500 0.11000 5.29900
C 0.12400 0.39700 6.78700
H 1.16800 0.03300 7.73300
N -0.18500 1.96100 -0.15200
C -0.70300 2.80000 0.77700
C -0.62000 4.15600 0.19300
C -0.18700 4.01500 -1.22500
C -0.21400 2.58300 -1.38000
C -0.88700 5.40600 0.97400
C 0.18100 5.01300 -2.27700
O 0.30300 4.69000 -3.50800
C 0.31000 6.41400 -1.83700
N -0.26500 -0.41300 -2.02900
C -0.27900 0.56900 -2.93700
C -0.19600 0.02400 -4.33200
C 0.12400 -1.53300 -4.18000
C 0.08600 -1.63200 -2.63500
C -1.45100 0.20500 -5.19700
C 1.37300 -2.07000 -4.92300
C 2.62600 -1.49000 -4.30600
N 0.15000 -2.14400 0.30300
C 0.17300 -3.13600 -0.68800
C 0.17300 -4.43800 0.00400
C 0.13300 -4.11100 1.35800
C 0.08300 -2.69500 1.50200
C 0.14900 -5.71500 -0.62300
C 0.09600 -4.62900 2.71600
O 0.20800 -5.74700 3.22100
C -0.25500 -3.42800 3.70100
C 0.71700 -3.48200 4.84800
O 1.93100 -3.25500 4.66900
O 0.03800 -3.55600 6.00300
C 0.94300 -3.58300 7.18300
H -1.85900 3.22000 2.49700
H -0.21800 2.45300 -3.47400
H 0.27600 -3.74700 -2.60500
H -1.55400 -0.94900 5.13200
H -1.58500 1.83100 4.66500
H -3.48400 -0.37700 3.96900
H -3.51100 1.02700 2.85800
H -3.85200 1.30100 4.54300
H 0.66900 1.09600 4.96600
H 1.13000 -0.63900 5.18900
H -0.84400 0.02600 7.12500
H 0.06200 1.47700 6.92100
H -1.34400 5.18600 1.93800
H -1.65100 5.96300 0.43200
H 0.00700 6.02000 1.08400
H -0.63500 6.74400 -1.40500
H 0.66500 6.97000 -2.70400
H 1.04800 6.46600 -1.03600
H 0.60800 0.50100 -4.89100
H -0.69200 -2.15600 -4.54700
H -1.26700 0.74000 -6.12900
H -2.20400 0.71400 -4.59600
H -1.96700 -0.72000 -5.45300
H 1.35600 -1.75900 -5.96700
H 1.45200 -3.15700 -4.90200
H 2.71400 -0.52200 -4.79800
H 3.48700 -2.12100 -4.52900
H 2.49500 -1.30300 -3.24000
H 0.86700 -6.33300 -0.08400
H 0.40400 -5.64200 -1.68000
H -0.89100 -5.99900 -0.46300
H -1.28300 -3.58100 4.02800
H 0.69800 -4.47800 7.75500
H 0.83300 -2.61900 7.68000
H 2.00000 -3.75400 6.97600
Mg 13.12924 1.18520 0.99361
C 12.69987 -1.61067 -1.21496
C 13.01335 3.18999 -1.76356
C 13.95393 3.62086 2.85235
C 14.33648 -1.05715 3.37271
N 12.88376 0.73067 -1.15706
C 12.66744 -0.36306 -1.87211
C 12.32169 -0.09937 -3.36224
C 13.01069 1.34288 -3.51738
C 12.93714 1.80651 -2.06400
C 14.47364 1.27055 -3.92221
C 10.77449 -0.02679 -3.61306
C 10.35835 -0.08057 -5.08469
H 9.12086 -0.77310 -5.43322
N 12.95968 3.14046 0.69899
C 12.90411 3.78293 -0.48652
C 12.80141 5.21454 -0.16385
C 12.96684 5.37710 1.30616
C 13.32855 4.02502 1.68183
C 12.48885 6.26051 -1.19423
C 12.83538 6.55729 2.22052
O 13.25679 6.52189 3.43048
C 12.28389 7.78569 1.63028
N 14.21193 1.30395 2.76449
C 14.38012 2.47988 3.39443
C 14.94907 2.28054 4.77897
C 14.90175 0.70344 5.03993
C 14.37323 0.23539 3.66626
C 16.37483 2.78878 4.99182
C 14.16242 0.22361 6.31893
C 12.68203 0.50377 6.19508
N 13.29697 -0.96217 1.16297
C 13.85739 -1.69215 2.23401
C 13.85012 -3.11626 1.84122
C 13.30280 -3.11355 0.54936
C 13.00965 -1.77975 0.15624
C 14.35303 -4.19653 2.61983
C 12.91621 -3.93470 -0.57535
O 12.85084 -5.14522 -0.78532
C 12.62577 -2.98627 -1.81733
C 11.32085 -3.41255 -2.43213
O 10.25577 -3.29186 -1.80153
O 11.51637 -3.68727 -3.73470
C 10.24841 -4.10407 -4.39072
H 13.21818 3.88698 -2.57667
H 14.15864 4.41368 3.57554
H 14.60537 -1.82831 4.09775
H 12.76283 -0.79935 -4.06167
H 12.42127 1.99556 -4.15610
H 14.84150 0.25526 -3.92378
H 15.00987 1.86613 -3.19503
H 14.62294 1.76543 -4.88612
H 10.41634 0.97765 -3.35312
H 10.26322 -0.79395 -3.06470
H 11.17903 -0.41025 -5.73333
H 10.14234 0.93622 -5.42160
H 12.58426 5.86337 -2.21235
H 13.27327 7.02194 -1.12507
H 11.51936 6.73604 -1.03106
H 12.90707 8.09636 0.79506
H 12.18401 8.48896 2.45932
H 11.29372 7.56173 1.21793
H 14.33934 2.77830 5.52299
H 15.91016 0.27824 5.15015
H 16.45842 3.52160 5.81647
H 16.72587 3.21937 4.06343
H 17.11699 2.01559 5.18307
H 14.51215 0.78222 7.19059
H 14.30777 -0.83014 6.53218
H 12.60305 1.55206 6.49829
H 12.11281 -0.14324 6.85947
H 12.35486 0.43708 5.15097
H 13.62924 -4.99723 2.54558
H 14.51418 -3.89990 3.65414
H 15.29340 -4.39213 2.09762
H 13.45966 -3.09201 -2.51234
H 10.43181 -5.08087 -4.84889
H 9.97539 -3.27323 -5.06816
H 9.40245 -4.32611 -3.75080

