%nproc=24
%mem=175gb
#p cam-b3lyp/Def2SVP td=(nstates=5)

TDDFT excited states in gaussian

0 1
Mg 0.00000 0.00000 0.00000
C -0.21700 -2.21800 2.80100
C -1.25500 2.44200 2.02600
C -0.24500 1.85000 -2.56400
C 0.14600 -2.82400 -2.03700
N -0.61700 -0.00900 2.12600
C -0.59400 -0.90800 3.10500
C -0.93600 -0.30900 4.50200
C -1.77300 0.96400 4.03200
C -1.15500 1.16800 2.66000
C -3.26300 0.68500 3.86300
C 0.34500 0.11000 5.29900
C 0.12400 0.39700 6.78700
H 1.16800 0.03300 7.73300
N -0.18500 1.96100 -0.15200
C -0.70300 2.80000 0.77700
C -0.62000 4.15600 0.19300
C -0.18700 4.01500 -1.22500
C -0.21400 2.58300 -1.38000
C -0.88700 5.40600 0.97400
C 0.18100 5.01300 -2.27700
O 0.30300 4.69000 -3.50800
C 0.31000 6.41400 -1.83700
N -0.26500 -0.41300 -2.02900
C -0.27900 0.56900 -2.93700
C -0.19600 0.02400 -4.33200
C 0.12400 -1.53300 -4.18000
C 0.08600 -1.63200 -2.63500
C -1.45100 0.20500 -5.19700
C 1.37300 -2.07000 -4.92300
C 2.62600 -1.49000 -4.30600
N 0.15000 -2.14400 0.30300
C 0.17300 -3.13600 -0.68800
C 0.17300 -4.43800 0.00400
C 0.13300 -4.11100 1.35800
C 0.08300 -2.69500 1.50200
C 0.14900 -5.71500 -0.62300
C 0.09600 -4.62900 2.71600
O 0.20800 -5.74700 3.22100
C -0.25500 -3.42800 3.70100
C 0.71700 -3.48200 4.84800
O 1.93100 -3.25500 4.66900
O 0.03800 -3.55600 6.00300
C 0.94300 -3.58300 7.18300
H -1.85900 3.22000 2.49700
H -0.21800 2.45300 -3.47400
H 0.27600 -3.74700 -2.60500
H -1.55400 -0.94900 5.13200
H -1.58500 1.83100 4.66500
H -3.48400 -0.37700 3.96900
H -3.51100 1.02700 2.85800
H -3.85200 1.30100 4.54300
H 0.66900 1.09600 4.96600
H 1.13000 -0.63900 5.18900
H -0.84400 0.02600 7.12500
H 0.06200 1.47700 6.92100
H -1.34400 5.18600 1.93800
H -1.65100 5.96300 0.43200
H 0.00700 6.02000 1.08400
H -0.63500 6.74400 -1.40500
H 0.66500 6.97000 -2.70400
H 1.04800 6.46600 -1.03600
H 0.60800 0.50100 -4.89100
H -0.69200 -2.15600 -4.54700
H -1.26700 0.74000 -6.12900
H -2.20400 0.71400 -4.59600
H -1.96700 -0.72000 -5.45300
H 1.35600 -1.75900 -5.96700
H 1.45200 -3.15700 -4.90200
H 2.71400 -0.52200 -4.79800
H 3.48700 -2.12100 -4.52900
H 2.49500 -1.30300 -3.24000
H 0.86700 -6.33300 -0.08400
H 0.40400 -5.64200 -1.68000
H -0.89100 -5.99900 -0.46300
H -1.28300 -3.58100 4.02800
H 0.69800 -4.47800 7.75500
H 0.83300 -2.61900 7.68000
H 2.00000 -3.75400 6.97600
Mg 7.89072 0.71241 0.59193
C 7.38001 4.25830 0.38014
C 7.27463 0.57406 -2.76006
C 7.88904 -2.45205 0.82352
C 7.33713 0.97763 4.02252
N 7.40298 2.28138 -0.88884
C 7.29633 3.60138 -0.86521
C 7.16843 4.26148 -2.26431
C 6.57784 3.00429 -3.07026
C 7.14558 1.87540 -2.21238
C 5.06111 2.92044 -3.02717
C 8.55594 4.71320 -2.84119
C 8.47627 5.63848 -4.05744
H 9.48176 6.68772 -4.20082
N 8.10596 -0.67784 -0.80787
C 7.82977 -0.55765 -2.12337
C 8.13859 -1.86618 -2.72049
C 8.46291 -2.81773 -1.62319
C 8.13786 -2.00717 -0.46672
C 8.18535 -2.09314 -4.20364
C 8.96825 -4.22868 -1.61613
O 8.95279 -4.94413 -0.55278
C 9.39485 -4.77874 -2.91110
N 7.44086 -0.58698 2.15129
C 7.57215 -1.91687 2.00270
C 7.46041 -2.62774 3.33032
C 7.46817 -1.47378 4.43753
C 7.49433 -0.23657 3.51341
C 6.21979 -3.50136 3.51480
C 8.53758 -1.58154 5.55887
C 9.91821 -1.38200 4.97626
N 7.62267 2.32552 2.00404
C 7.37873 2.21380 3.39044
C 7.15205 3.58025 3.90411
C 7.25789 4.39640 2.76781
C 7.51121 3.59319 1.62318
C 6.84263 3.92205 5.25080
C 7.20237 5.75375 2.27463
O 7.10508 6.86404 2.79571
C 7.15340 5.71276 0.68645
C 8.15806 6.70337 0.16504
O 9.37445 6.53114 0.35827
O 7.53749 7.56913 -0.65698
C 8.49482 8.56487 -1.20820
H 6.87516 0.38903 -3.75760
H 7.98635 -3.52917 0.97785
H 7.25530 1.15392 5.09718
H 6.47553 5.09294 -2.31268
H 6.98100 2.95671 -4.07850
H 4.63572 3.65595 -2.36068
H 4.83143 1.92044 -2.68321
H 4.65069 2.99302 -4.03841
H 9.05361 3.84718 -3.29623
H 9.15526 5.17036 -2.07801
H 7.46913 6.04965 -4.19728
H 8.65047 5.04409 -4.95765
H 7.74066 -1.25429 -4.75316
H 7.52421 -2.93964 -4.41859
H 9.18956 -2.32910 -4.56219
H 8.56365 -4.74048 -3.61117
H 9.80685 -5.76489 -2.68826
H 10.18200 -4.13658 -3.32175
H 8.31142 -3.27745 3.49393
H 6.51810 -1.43310 4.99030
H 6.45929 -4.55397 3.75714
H 5.62518 -3.44465 2.61272
H 5.52060 -3.15603 4.27446
H 8.52733 -2.58257 5.99705
H 8.38794 -0.87434 6.36786
H 10.16924 -2.37472 4.59080
H 10.61840 -1.06977 5.74846
H 9.88968 -0.69455 4.12288
H 7.44187 4.78833 5.49769
H 7.04242 3.09359 5.92720
H 5.77288 4.12810 5.15887
H 6.13607 5.96342 0.38348
H 8.10121 9.55617 -0.96309
H 8.60026 8.31588 -2.28088
H 9.48105 8.61253 -0.76153

