%nproc=24
%mem=175gb
#p cam-b3lyp/Def2SVP td=(nstates=5)

TDDFT excited states in gaussian

0 1
Mg 31.53888 2.84629 2.39936
C 31.11643 2.26604 5.91560
C 30.33243 5.99307 2.92559
C 31.47353 3.24037 -0.74831
C 31.61310 -0.61250 1.97873
N 30.84792 3.87927 4.22906
C 30.79096 3.57958 5.51797
C 30.43831 4.77629 6.44160
C 29.67252 5.69176 5.36720
C 30.34600 5.18780 4.09240
C 28.18568 5.39233 5.27230
C 31.71535 5.49510 7.00240
C 31.45143 6.47251 8.14990
H 32.44962 6.58776 9.20952
N 31.45564 4.50590 1.31431
C 30.95411 5.70059 1.69177
C 31.10832 6.58742 0.52819
C 31.59083 5.77403 -0.62085
C 31.50361 4.44227 -0.05615
C 30.88311 8.06986 0.59944
C 32.04234 6.13399 -2.00388
O 32.19247 5.24581 -2.91570
C 32.21345 7.56678 -2.28554
N 31.33060 1.51541 0.81579
C 31.38923 1.94194 -0.45801
C 31.49182 0.78072 -1.41792
C 31.73453 -0.51041 -0.50596
C 31.63697 0.14366 0.88978
C 30.27550 0.54906 -2.31418
C 32.98209 -1.37692 -0.83060
C 34.24299 -0.60461 -0.51588
N 31.57975 1.12177 3.70029
C 31.58261 -0.23696 3.31567
C 31.49627 -1.03980 4.55277
C 31.42540 -0.08461 5.57799
C 31.44443 1.22133 5.01796
C 31.44270 -2.46061 4.62038
C 31.32809 0.11584 7.00595
O 31.36184 -0.62076 7.99084
C 30.99622 1.64592 7.28001
C 31.92444 2.13685 8.35700
O 33.14942 2.20416 8.15328
O 31.19666 2.64806 9.36663
C 32.07320 3.15817 10.45442
H 29.75607 6.91852 2.94058
H 31.56098 3.31943 -1.83440
H 31.72952 -1.69763 1.93858
H 29.77579 4.53534 7.26427
H 29.88820 6.74585 5.52125
H 27.91017 4.52939 5.86016
H 27.98780 5.21441 4.22338
H 27.60464 6.27874 5.54249
H 32.09523 6.19275 6.24496
H 32.45563 4.77857 7.30109
H 30.44966 6.34495 8.57784
H 31.44302 7.48778 7.74595
H 30.37585 8.35544 1.52924
H 30.16660 8.32272 -0.18958
H 31.79919 8.64313 0.44189
H 31.27277 8.08385 -2.11174
H 32.62560 7.61895 -3.29514
H 32.93590 7.97963 -1.57263
H 32.33634 0.90370 -2.08482
H 30.89975 -1.22299 -0.57811
H 30.51925 0.56421 -3.39327
H 29.53219 1.30004 -2.08167
H 29.73433 -0.37705 -2.12799
H 33.01673 -1.60578 -1.89858
H 33.00218 -2.32184 -0.29794
H 34.38846 0.00611 -1.41196
H 35.07927 -1.28330 -0.36075
H 34.08599 0.07868 0.32681
H 32.10466 -2.75932 5.42229
H 31.73199 -2.91481 3.67497
H 30.38107 -2.60564 4.83760
H 29.95011 1.70508 7.58289
H 31.76251 2.65724 11.37649
H 31.97795 4.25985 10.42299
H 33.12417 2.89663 10.41543

