%nproc=24
%mem=175gb
#p cam-b3lyp/Def2SVP td=(nstates=5)

TDDFT excited states in gaussian

0 1
Mg 10.51889 0.93960 0.79663
C 10.58572 0.91914 -2.79143
C 9.94887 -2.42046 0.65633
C 10.00700 0.99614 3.92747
C 9.95335 4.37435 0.62812
N 10.31501 -0.45675 -0.90658
C 10.42042 -0.36128 -2.22344
C 10.42487 -1.72293 -2.96872
C 9.65539 -2.60245 -1.86726
C 10.01979 -1.80299 -0.61796
C 8.14425 -2.57803 -2.02602
C 11.87689 -2.26119 -3.22158
C 11.96807 -3.42520 -4.21078
H 13.13083 -3.50117 -5.09095
N 10.53412 -0.53276 2.12723
C 10.30435 -1.84211 1.89467
C 10.41060 -2.50768 3.20230
C 10.55882 -1.46163 4.25040
C 10.34688 -0.26523 3.46060
C 10.44708 -4.00060 3.35489
C 10.83179 -1.52780 5.72258
O 10.68303 -0.50575 6.48159
C 11.18811 -2.84717 6.26461
N 9.83910 2.42064 2.08765
C 9.75865 2.20010 3.41159
C 9.51086 3.48537 4.16463
C 9.68319 4.65461 3.08724
C 9.92347 3.80047 1.82308
C 8.14338 3.60991 4.83610
C 10.70131 5.77810 3.42470
C 12.10631 5.22014 3.41897
N 10.48697 2.43606 -0.76146
C 10.20346 3.81188 -0.61706
C 10.18904 4.39808 -1.97300
C 10.44442 3.30958 -2.82061
C 10.58654 2.12474 -2.04895
C 9.91415 5.75866 -2.28821
C 10.61556 2.89157 -4.19345
O 10.68775 3.47223 -5.27574
C 10.58917 1.30317 -4.24509
C 11.74852 0.84651 -5.08764
O 12.91805 1.04114 -4.71222
O 11.28926 0.06785 -6.08420
C 12.40325 -0.41873 -6.94099
H 9.54292 -3.43032 0.72164
H 9.92800 1.09168 5.01288
H 9.88150 5.45630 0.49817
H 9.87485 -1.73172 -3.90208
H 10.06378 -3.60803 -1.80903
H 7.83007 -1.87591 -2.78395
H 7.75146 -2.29192 -1.05911
H 7.76893 -3.58747 -2.21710
H 12.23775 -2.75873 -2.31220
H 12.52782 -1.46845 -3.53541
H 11.04233 -3.55140 -4.78526
H 12.06110 -4.35519 -3.64469
H 10.15220 -4.50706 2.42756
H 9.66303 -4.26802 4.07157
H 11.40689 -4.36236 3.72979
H 10.38643 -3.55169 6.05625
H 11.43302 -2.67532 7.31455
H 12.07507 -3.21448 5.73641
H 10.24393 3.62070 4.95038
H 8.74209 5.20001 2.92379
H 8.20707 3.79598 5.92486
H 7.58178 2.70689 4.63687
H 7.49490 4.38100 4.42368
H 10.52323 6.16024 4.43287
H 10.65219 6.62347 2.74652
H 12.20222 4.78280 4.41728
H 12.83344 6.01481 3.26467
H 12.20341 4.40578 2.69162
H 10.63969 6.05851 -3.03264
H 9.96670 6.39012 -1.40374
H 8.89295 5.66839 -2.66804
H 9.63063 1.00514 -4.67166
H 12.16891 -0.12291 -7.96825
H 12.48675 -1.50250 -6.73551
H 13.37623 0.03896 -6.80584

