%nproc=24
%mem=175gb
#p cam-b3lyp/Def2SVP td=(nstates=5)

TDDFT excited states in gaussian

0 1
Mg 31.53840 2.84372 2.40268
C 31.15741 0.60456 5.18118
C 30.13973 5.26583 4.35503
C 31.44460 4.71453 -0.15832
C 31.82653 0.03605 0.35825
N 30.78710 2.81685 4.48284
C 30.75054 1.92557 5.46193
C 30.32554 2.50067 6.83968
C 29.50300 3.77951 6.32307
C 30.20478 3.99690 4.98407
C 28.03749 3.48297 6.05164
C 31.55626 2.92485 7.71571
C 31.23371 3.20471 9.18520
H 32.22422 2.84466 10.19600
N 31.35093 4.81411 2.25780
C 30.77674 5.64488 3.15300
C 30.87409 6.99257 2.57126
C 31.40464 6.86849 1.18640
C 31.40095 5.42771 1.03081
C 30.55744 8.23836 3.34662
C 31.83112 7.87974 0.16577
O 32.03487 7.55685 -1.05777
C 31.91264 9.27558 0.62015
N 31.41102 2.44178 0.36686
C 31.44140 3.43641 -0.53742
C 31.61457 2.89618 -1.93690
C 31.93812 1.34006 -1.75976
C 31.80200 1.22635 -0.22550
C 30.41379 3.06330 -2.86781
C 33.23662 0.81071 -2.42786
C 34.44758 1.40033 -1.74135
N 31.68791 0.70942 2.70344
C 31.77456 -0.28829 1.70787
C 31.73982 -1.59476 2.39659
C 31.61117 -1.26423 3.75405
C 31.54841 0.14803 3.89921
C 31.77460 -2.86961 1.76440
C 31.50350 -1.78919 5.09626
O 31.58418 -2.90866 5.60026
C 31.07770 -0.60634 6.06886
C 31.97509 -0.65104 7.27518
O 33.19326 -0.42608 7.16540
O 31.21832 -0.73615 8.38443
C 32.06295 -0.77221 9.60799
H 29.50709 6.03398 4.80066
H 31.52554 5.31644 -1.06641
H 32.01000 -0.88435 -0.20022
H 29.68033 1.85414 7.42233
H 29.65307 4.63565 6.97564
H 27.81682 2.42945 6.13839
H 27.84964 3.82706 5.04299
H 27.40293 4.09272 6.70116
H 31.89112 3.92243 7.40356
H 32.33995 2.19535 7.65035
H 30.24235 2.83040 9.46813
H 31.16179 4.28607 9.32484
H 30.03466 8.00741 4.28298
H 29.82558 8.80327 2.75914
H 31.43598 8.86515 3.51383
H 30.94191 9.59039 0.99572
H 32.31942 9.83466 -0.22474
H 32.60901 9.32855 1.46447
H 32.44896 3.37407 -2.43542
H 31.14907 0.70794 -2.19295
H 30.65471 3.61465 -3.79627
H 29.62563 3.56436 -2.32166
H 29.93137 2.13545 -3.17039
H 33.28398 1.13239 -3.47114
H 33.31599 -0.27125 -2.42055
H 34.55369 2.37666 -2.22364
H 35.32455 0.77890 -1.91099
H 34.24960 1.57779 -0.67788
H 32.45488 -3.48378 2.33931
H 32.09027 -2.79008 0.72622
H 30.72431 -3.15996 1.85299
H 30.03033 -0.75942 6.33187
H 31.78516 -1.67451 10.16150
H 31.89949 0.19859 10.11256
H 33.12807 -0.92368 9.47747

