%nproc=24
%mem=175gb
#p cam-b3lyp/Def2SVP td=(nstates=5)

TDDFT excited states in gaussian

0 1
Mg 8.93487 0.80905 0.68814
C 7.29113 -1.61069 2.76709
C 6.53928 3.03972 1.64726
C 10.08905 2.82613 -1.47212
C 10.47203 -1.85222 -0.95517
N 7.19280 0.62038 2.03790
C 6.70324 -0.32968 2.82025
C 5.56784 0.13989 3.76890
C 5.05882 1.40807 2.92542
C 6.34952 1.73921 2.17902
C 3.99079 1.06060 1.90174
C 6.10593 0.56681 5.17965
C 5.02911 0.74119 6.25287
H 5.34941 0.36678 7.62753
N 8.71233 2.77371 0.51741
C 7.69061 3.52066 0.98584
C 7.98622 4.90439 0.58325
C 9.18181 4.88988 -0.30280
C 9.36567 3.46266 -0.47406
C 7.21553 6.08445 1.09990
C 10.01334 5.98027 -0.90761
O 10.86183 5.74244 -1.83838
C 9.73867 7.34809 -0.44380
N 9.94405 0.52649 -1.10743
C 10.38099 1.57475 -1.82727
C 11.31336 1.12953 -2.92856
C 11.60342 -0.41771 -2.64660
C 10.67740 -0.63099 -1.42906
C 10.78718 1.29690 -4.35387
C 13.09218 -0.84418 -2.52662
C 13.70294 -0.24166 -1.28190
N 9.05397 -1.33031 0.96559
C 9.73069 -2.26032 0.14631
C 9.42769 -3.60656 0.67382
C 8.57038 -3.36578 1.75804
C 8.33818 -1.96946 1.88407
C 9.88658 -4.83747 0.12574
C 7.80054 -3.97605 2.81805
O 7.67997 -5.11919 3.25673
C 6.83709 -2.87587 3.44073
C 6.95178 -2.95213 4.93858
O 8.02026 -2.66431 5.50613
O 5.72795 -3.13993 5.46522
C 5.78837 -3.21109 6.94951
H 5.71300 3.74892 1.70357
H 10.59892 3.48541 -2.17841
H 10.99123 -2.72729 -1.35186
H 4.75975 -0.57037 3.89660
H 4.77492 2.22890 3.57887
H 3.83452 -0.00540 1.82853
H 4.34657 1.45641 0.95950
H 3.06540 1.59933 2.12475
H 6.48282 1.59610 5.12266
H 6.85353 -0.12000 5.52610
H 4.06994 0.30449 5.94917
H 4.81600 1.80749 6.36058
H 6.29166 5.77269 1.60257
H 6.87220 6.64937 0.22648
H 7.82102 6.74018 1.72923
H 8.69772 7.59377 -0.64009
H 10.49232 7.97601 -0.92296
H 9.87039 7.38190 0.64345
H 12.24801 1.67533 -2.88819
H 11.21578 -1.05836 -3.45229
H 11.44634 1.91447 -4.99277
H 9.79546 1.72641 -4.30337
H 10.60936 0.36773 -4.89259
H 13.66619 -0.45762 -3.37234
H 13.23311 -1.91969 -2.50644
H 13.97958 0.76614 -1.60576
H 14.57702 -0.81001 -0.97043
H 12.95531 -0.13882 -0.48684
H 10.19674 -5.45315 0.95956
H 10.70131 -4.68015 -0.57799
H 8.97554 -5.18136 -0.37125
H 5.82544 -3.09339 3.09601
H 5.32375 -4.15743 7.24318
H 5.31119 -2.28155 7.31283
H 6.76615 -3.30447 7.40742

