%nproc=24
%mem=175gb
#p cam-b3lyp/Def2SVP td=(nstates=5)

TDDFT excited states in gaussian

0 1
Mg 0.00000 0.00000 0.00000
C -0.21700 -2.21800 2.80100
C -1.25500 2.44200 2.02600
C -0.24500 1.85000 -2.56400
C 0.14600 -2.82400 -2.03700
N -0.61700 -0.00900 2.12600
C -0.59400 -0.90800 3.10500
C -0.93600 -0.30900 4.50200
C -1.77300 0.96400 4.03200
C -1.15500 1.16800 2.66000
C -3.26300 0.68500 3.86300
C 0.34500 0.11000 5.29900
C 0.12400 0.39700 6.78700
H 1.16800 0.03300 7.73300
N -0.18500 1.96100 -0.15200
C -0.70300 2.80000 0.77700
C -0.62000 4.15600 0.19300
C -0.18700 4.01500 -1.22500
C -0.21400 2.58300 -1.38000
C -0.88700 5.40600 0.97400
C 0.18100 5.01300 -2.27700
O 0.30300 4.69000 -3.50800
C 0.31000 6.41400 -1.83700
N -0.26500 -0.41300 -2.02900
C -0.27900 0.56900 -2.93700
C -0.19600 0.02400 -4.33200
C 0.12400 -1.53300 -4.18000
C 0.08600 -1.63200 -2.63500
C -1.45100 0.20500 -5.19700
C 1.37300 -2.07000 -4.92300
C 2.62600 -1.49000 -4.30600
N 0.15000 -2.14400 0.30300
C 0.17300 -3.13600 -0.68800
C 0.17300 -4.43800 0.00400
C 0.13300 -4.11100 1.35800
C 0.08300 -2.69500 1.50200
C 0.14900 -5.71500 -0.62300
C 0.09600 -4.62900 2.71600
O 0.20800 -5.74700 3.22100
C -0.25500 -3.42800 3.70100
C 0.71700 -3.48200 4.84800
O 1.93100 -3.25500 4.66900
O 0.03800 -3.55600 6.00300
C 0.94300 -3.58300 7.18300
H -1.85900 3.22000 2.49700
H -0.21800 2.45300 -3.47400
H 0.27600 -3.74700 -2.60500
H -1.55400 -0.94900 5.13200
H -1.58500 1.83100 4.66500
H -3.48400 -0.37700 3.96900
H -3.51100 1.02700 2.85800
H -3.85200 1.30100 4.54300
H 0.66900 1.09600 4.96600
H 1.13000 -0.63900 5.18900
H -0.84400 0.02600 7.12500
H 0.06200 1.47700 6.92100
H -1.34400 5.18600 1.93800
H -1.65100 5.96300 0.43200
H 0.00700 6.02000 1.08400
H -0.63500 6.74400 -1.40500
H 0.66500 6.97000 -2.70400
H 1.04800 6.46600 -1.03600
H 0.60800 0.50100 -4.89100
H -0.69200 -2.15600 -4.54700
H -1.26700 0.74000 -6.12900
H -2.20400 0.71400 -4.59600
H -1.96700 -0.72000 -5.45300
H 1.35600 -1.75900 -5.96700
H 1.45200 -3.15700 -4.90200
H 2.71400 -0.52200 -4.79800
H 3.48700 -2.12100 -4.52900
H 2.49500 -1.30300 -3.24000
H 0.86700 -6.33300 -0.08400
H 0.40400 -5.64200 -1.68000
H -0.89100 -5.99900 -0.46300
H -1.28300 -3.58100 4.02800
H 0.69800 -4.47800 7.75500
H 0.83300 -2.61900 7.68000
H 2.00000 -3.75400 6.97600
Mg 31.53912 2.84006 2.40356
C 31.52394 -0.46898 3.79247
C 30.32947 3.94063 5.39690
C 31.11484 5.68864 1.07202
C 31.64253 1.36492 -0.75223
N 31.03360 1.77704 4.27618
C 31.12722 0.52827 4.70764
C 30.85326 0.34983 6.22509
C 29.95248 1.65796 6.46228
C 30.49076 2.53352 5.33254
C 28.47132 1.42101 6.21865
C 32.16861 0.39552 7.07937
C 32.01260 -0.07817 8.52610
H 33.11982 -0.80191 9.14476
N 31.29883 4.62469 3.23777
C 30.81616 4.88854 4.47012
C 30.82013 6.35404 4.59849
C 31.18953 6.93931 3.28102
C 31.19524 5.74814 2.45569
C 30.57152 7.05743 5.90112
C 31.47608 8.34106 2.83473
O 31.54332 8.65193 1.59309
C 31.58302 9.35682 3.89222
N 31.18524 3.44257 0.44547
C 31.09216 4.74616 0.12940
C 31.11284 4.94743 -1.36709
C 31.48413 3.52090 -1.98735
C 31.52821 2.68446 -0.68972
C 29.80967 5.44888 -1.98894
C 32.70663 3.46605 -2.94398
C 33.97734 3.74533 -2.17412
N 31.76280 0.83497 1.63047
C 31.75286 0.43713 0.27559
C 31.82265 -1.03838 0.25458
C 31.84530 -1.40059 1.60986
C 31.77294 -0.23428 2.41855
C 31.80839 -1.85534 -0.91096
C 31.90326 -2.50495 2.54029
O 32.06280 -3.72051 2.43688
C 31.57022 -1.95809 3.99508
C 32.60154 -2.50435 4.94401
O 33.79442 -2.16739 4.84340
O 31.97963 -3.15891 5.94158
C 32.96039 -3.70955 6.91458
H 29.73804 4.35830 6.21215
H 31.07899 6.65297 0.55991
H 31.77773 0.83481 -1.69742
H 30.29200 -0.54002 6.48380
H 30.16061 2.11105 7.42807
H 28.28217 0.43934 5.81035
H 28.16181 2.18737 5.52012
H 27.90453 1.60291 7.13625
H 32.44622 1.44306 7.25356
H 32.95322 -0.15753 6.60068
H 31.06780 -0.61195 8.68544
H 31.93678 0.79966 9.17240
H 30.16480 6.37357 6.65632
H 29.76616 7.77902 5.72626
H 31.45144 7.59147 6.26608
H 30.65633 9.38549 4.46047
H 31.87887 10.27702 3.38470
H 32.37107 9.05335 4.59043
H 31.87489 5.66299 -1.65056
H 30.66248 3.11461 -2.59535
H 29.93131 6.38997 -2.55782
H 29.08046 5.57332 -1.19944
H 29.31324 4.74317 -2.65281
H 32.62714 4.24605 -3.70519
H 32.80683 2.51862 -3.46295
H 34.00854 4.83839 -2.13754
H 34.84050 3.34324 -2.70074
H 33.90012 3.38305 -1.14240
H 32.56201 -2.61791 -0.76589
H 32.00054 -1.27104 -1.80842
H 30.78104 -2.22760 -0.87565
H 30.56331 -2.29228 4.24811
H 32.76551 -4.78370 6.99147
H 32.83787 -3.10823 7.83499
H 34.00599 -3.70416 6.62976

