%nproc=24
%mem=175gb
#p cam-b3lyp/Def2SVP td=(nstates=5)

TDDFT excited states in gaussian

0 1
Mg 0.00000 0.00000 0.00000
C -0.21700 -2.21800 2.80100
C -1.25500 2.44200 2.02600
C -0.24500 1.85000 -2.56400
C 0.14600 -2.82400 -2.03700
N -0.61700 -0.00900 2.12600
C -0.59400 -0.90800 3.10500
C -0.93600 -0.30900 4.50200
C -1.77300 0.96400 4.03200
C -1.15500 1.16800 2.66000
C -3.26300 0.68500 3.86300
C 0.34500 0.11000 5.29900
C 0.12400 0.39700 6.78700
H 1.16800 0.03300 7.73300
N -0.18500 1.96100 -0.15200
C -0.70300 2.80000 0.77700
C -0.62000 4.15600 0.19300
C -0.18700 4.01500 -1.22500
C -0.21400 2.58300 -1.38000
C -0.88700 5.40600 0.97400
C 0.18100 5.01300 -2.27700
O 0.30300 4.69000 -3.50800
C 0.31000 6.41400 -1.83700
N -0.26500 -0.41300 -2.02900
C -0.27900 0.56900 -2.93700
C -0.19600 0.02400 -4.33200
C 0.12400 -1.53300 -4.18000
C 0.08600 -1.63200 -2.63500
C -1.45100 0.20500 -5.19700
C 1.37300 -2.07000 -4.92300
C 2.62600 -1.49000 -4.30600
N 0.15000 -2.14400 0.30300
C 0.17300 -3.13600 -0.68800
C 0.17300 -4.43800 0.00400
C 0.13300 -4.11100 1.35800
C 0.08300 -2.69500 1.50200
C 0.14900 -5.71500 -0.62300
C 0.09600 -4.62900 2.71600
O 0.20800 -5.74700 3.22100
C -0.25500 -3.42800 3.70100
C 0.71700 -3.48200 4.84800
O 1.93100 -3.25500 4.66900
O 0.03800 -3.55600 6.00300
C 0.94300 -3.58300 7.18300
H -1.85900 3.22000 2.49700
H -0.21800 2.45300 -3.47400
H 0.27600 -3.74700 -2.60500
H -1.55400 -0.94900 5.13200
H -1.58500 1.83100 4.66500
H -3.48400 -0.37700 3.96900
H -3.51100 1.02700 2.85800
H -3.85200 1.30100 4.54300
H 0.66900 1.09600 4.96600
H 1.13000 -0.63900 5.18900
H -0.84400 0.02600 7.12500
H 0.06200 1.47700 6.92100
H -1.34400 5.18600 1.93800
H -1.65100 5.96300 0.43200
H 0.00700 6.02000 1.08400
H -0.63500 6.74400 -1.40500
H 0.66500 6.97000 -2.70400
H 1.04800 6.46600 -1.03600
H 0.60800 0.50100 -4.89100
H -0.69200 -2.15600 -4.54700
H -1.26700 0.74000 -6.12900
H -2.20400 0.71400 -4.59600
H -1.96700 -0.72000 -5.45300
H 1.35600 -1.75900 -5.96700
H 1.45200 -3.15700 -4.90200
H 2.71400 -0.52200 -4.79800
H 3.48700 -2.12100 -4.52900
H 2.49500 -1.30300 -3.24000
H 0.86700 -6.33300 -0.08400
H 0.40400 -5.64200 -1.68000
H -0.89100 -5.99900 -0.46300
H -1.28300 -3.58100 4.02800
H 0.69800 -4.47800 7.75500
H 0.83300 -2.61900 7.68000
H 2.00000 -3.75400 6.97600
Mg 8.92633 0.80834 0.68450
C 10.77139 2.44180 3.29345
C 7.46227 -1.08842 3.11214
C 7.62529 -0.95065 -1.61347
C 11.31466 1.99662 -1.55818
N 9.16755 0.77501 2.88290
C 9.85172 1.48364 3.76839
C 9.47375 1.20252 5.24747
C 8.88070 -0.27886 5.06673
C 8.44076 -0.18959 3.60688
C 9.93483 -1.36735 5.18219
C 8.38447 2.19567 5.78518
C 8.19241 2.17912 7.30326
H 7.87943 3.43528 7.97898
N 7.38035 -0.43489 0.73818
C 6.90881 -1.10106 1.81296
C 5.77337 -1.89924 1.32526
C 5.71609 -1.77674 -0.15678
C 6.94439 -1.05024 -0.40890
C 4.82576 -2.61298 2.24506
C 4.72682 -2.24807 -1.17923
O 4.99692 -2.23815 -2.43213
C 3.46879 -2.80848 -0.66465
N 9.51034 0.37856 -1.26398
C 8.73593 -0.37038 -2.06854
C 9.22062 -0.31559 -3.49769
C 10.34258 0.82366 -3.52746
C 10.37682 1.18442 -2.02610
C 9.80104 -1.61577 -4.05359
C 10.15466 1.96971 -4.55893
C 8.95320 2.80798 -4.18585
N 10.61689 2.15041 0.77893
C 11.49747 2.48831 -0.27202
C 12.55551 3.34315 0.30437
C 12.22727 3.42505 1.66600
C 11.05930 2.65775 1.92406
C 13.66527 3.88464 -0.40369
C 12.60927 3.97746 2.94569
O 13.46455 4.77552 3.32694
C 11.75557 3.26249 4.07988
C 11.20969 4.32739 4.99123
O 10.38089 5.15427 4.57177
O 11.58765 4.06200 6.25499
C 11.06111 5.08457 7.19781
H 7.11385 -1.88780 3.76673
H 7.15485 -1.44993 -2.46369
H 12.04040 2.48730 -2.21025
H 10.31083 1.18658 5.93509
H 8.02310 -0.44270 5.71407
H 10.93160 -0.95739 5.24942
H 9.83339 -1.97095 4.28976
H 9.70296 -2.02914 6.02160
H 7.39363 1.84710 5.46663
H 8.58666 3.19683 5.45742
H 9.01095 1.66014 7.81667
H 7.30832 1.58008 7.53468
H 5.21690 -2.65884 3.26893
H 4.79151 -3.65855 1.92029
H 3.81548 -2.19952 2.21249
H 3.68821 -3.65496 -0.01830
H 2.85526 -3.00679 -1.54564
H 2.97943 -2.05349 -0.03924
H 8.41735 -0.03533 -4.16799
H 11.33290 0.41389 -3.77485
H 9.28969 -1.96518 -4.97039
H 9.75151 -2.37009 -3.27959
H 10.86550 -1.58667 -4.28006
H 9.94978 1.55742 -5.54999
H 11.02245 2.61423 -4.65136
H 8.11699 2.24204 -4.60723
H 9.02384 3.79828 -4.63122
H 8.81643 2.83783 -3.09863
H 13.76956 4.91187 -0.08055
H 13.52081 3.81837 -1.48004
H 14.46152 3.22168 -0.05480
H 12.41948 2.57492 4.60528
H 11.92026 5.49226 7.73942
H 10.28700 4.56859 7.79635
H 10.63252 5.98466 6.77282

