%nproc=24
%mem=175gb
#p cam-b3lyp/Def2SVP td=(nstates=5)

TDDFT excited states in gaussian

0 1
Mg 0.00000 0.00000 0.00000
C -0.21700 -2.21800 2.80100
C -1.25500 2.44200 2.02600
C -0.24500 1.85000 -2.56400
C 0.14600 -2.82400 -2.03700
N -0.61700 -0.00900 2.12600
C -0.59400 -0.90800 3.10500
C -0.93600 -0.30900 4.50200
C -1.77300 0.96400 4.03200
C -1.15500 1.16800 2.66000
C -3.26300 0.68500 3.86300
C 0.34500 0.11000 5.29900
C 0.12400 0.39700 6.78700
H 1.16800 0.03300 7.73300
N -0.18500 1.96100 -0.15200
C -0.70300 2.80000 0.77700
C -0.62000 4.15600 0.19300
C -0.18700 4.01500 -1.22500
C -0.21400 2.58300 -1.38000
C -0.88700 5.40600 0.97400
C 0.18100 5.01300 -2.27700
O 0.30300 4.69000 -3.50800
C 0.31000 6.41400 -1.83700
N -0.26500 -0.41300 -2.02900
C -0.27900 0.56900 -2.93700
C -0.19600 0.02400 -4.33200
C 0.12400 -1.53300 -4.18000
C 0.08600 -1.63200 -2.63500
C -1.45100 0.20500 -5.19700
C 1.37300 -2.07000 -4.92300
C 2.62600 -1.49000 -4.30600
N 0.15000 -2.14400 0.30300
C 0.17300 -3.13600 -0.68800
C 0.17300 -4.43800 0.00400
C 0.13300 -4.11100 1.35800
C 0.08300 -2.69500 1.50200
C 0.14900 -5.71500 -0.62300
C 0.09600 -4.62900 2.71600
O 0.20800 -5.74700 3.22100
C -0.25500 -3.42800 3.70100
C 0.71700 -3.48200 4.84800
O 1.93100 -3.25500 4.66900
O 0.03800 -3.55600 6.00300
C 0.94300 -3.58300 7.18300
H -1.85900 3.22000 2.49700
H -0.21800 2.45300 -3.47400
H 0.27600 -3.74700 -2.60500
H -1.55400 -0.94900 5.13200
H -1.58500 1.83100 4.66500
H -3.48400 -0.37700 3.96900
H -3.51100 1.02700 2.85800
H -3.85200 1.30100 4.54300
H 0.66900 1.09600 4.96600
H 1.13000 -0.63900 5.18900
H -0.84400 0.02600 7.12500
H 0.06200 1.47700 6.92100
H -1.34400 5.18600 1.93800
H -1.65100 5.96300 0.43200
H 0.00700 6.02000 1.08400
H -0.63500 6.74400 -1.40500
H 0.66500 6.97000 -2.70400
H 1.04800 6.46600 -1.03600
H 0.60800 0.50100 -4.89100
H -0.69200 -2.15600 -4.54700
H -1.26700 0.74000 -6.12900
H -2.20400 0.71400 -4.59600
H -1.96700 -0.72000 -5.45300
H 1.35600 -1.75900 -5.96700
H 1.45200 -3.15700 -4.90200
H 2.71400 -0.52200 -4.79800
H 3.48700 -2.12100 -4.52900
H 2.49500 -1.30300 -3.24000
H 0.86700 -6.33300 -0.08400
H 0.40400 -5.64200 -1.68000
H -0.89100 -5.99900 -0.46300
H -1.28300 -3.58100 4.02800
H 0.69800 -4.47800 7.75500
H 0.83300 -2.61900 7.68000
H 2.00000 -3.75400 6.97600
Mg 13.13118 1.18659 1.00467
C 10.77690 -1.52198 1.00097
C 10.62443 3.16992 -0.18578
C 15.28408 3.47639 0.56962
C 15.66785 -1.20173 1.08808
N 11.01677 0.76335 0.51234
C 10.21700 -0.28795 0.60967
C 8.71811 0.01757 0.34594
C 8.89610 1.33555 -0.55413
C 10.24650 1.81305 -0.02398
C 9.04372 1.03642 -2.03672
C 7.92960 0.32628 1.66690
C 6.40631 0.32908 1.52084
H 5.59957 -0.16645 2.63264
N 12.89547 3.14295 0.76873
C 11.80435 3.77970 0.29409
C 12.14082 5.21181 0.29793
C 13.57763 5.35512 0.65816
C 13.98900 3.96557 0.65918
C 11.12196 6.28770 0.05751
C 14.44183 6.54654 0.94079
O 15.71881 6.45337 0.99956
C 13.75582 7.84194 1.05407
N 15.17712 1.14695 0.63736
C 15.88446 2.28641 0.54130
C 17.36891 2.00948 0.55188
C 17.51427 0.45999 0.92001
C 16.02046 0.07132 0.97328
C 18.10788 2.29315 -0.75573
C 18.41372 0.10693 2.13615
C 17.77815 0.61115 3.41177
N 13.23978 -0.96002 1.22456
C 14.40215 -1.76165 1.20587
C 13.96106 -3.16980 1.27651
C 12.56067 -3.08997 1.30843
C 12.15689 -1.72914 1.24065
C 14.81247 -4.31031 1.25505
C 11.33190 -3.84800 1.37332
O 11.05096 -5.03515 1.53299
C 10.11901 -2.87307 1.04959
C 9.05358 -3.09661 2.08758
O 9.26233 -2.80974 3.27953
O 7.89729 -3.40542 1.47276
C 6.80731 -3.62551 2.46034
H 9.97687 3.82248 -0.77206
H 16.07188 4.23221 0.52971
H 16.40067 -2.00106 1.21735
H 8.19040 -0.74591 -0.21299
H 8.12186 2.06768 -0.33988
H 9.12324 -0.02342 -2.22792
H 9.94486 1.54629 -2.35139
H 8.22537 1.49701 -2.59751
H 8.09361 1.37534 1.94496
H 8.21640 -0.34988 2.44869
H 6.08184 -0.12673 0.57749
H 6.06652 1.36511 1.44873
H 10.18812 5.87495 -0.34371
H 11.50848 6.91955 -0.74948
H 10.94810 6.90784 0.93949
H 13.21902 8.04823 0.13117
H 14.52762 8.55680 1.34592
H 13.00289 7.77094 1.84696
H 17.86694 2.59938 1.31155
H 17.95931 -0.11489 0.09461
H 18.94335 3.00892 -0.63851
H 17.39217 2.65934 -1.47975
H 18.51446 1.41592 -1.25609
H 19.38017 0.60982 2.05107
H 18.61096 -0.95543 2.23353
H 18.08550 1.66076 3.44247
H 18.15821 0.06328 4.27168
H 16.68441 0.58986 3.34165
H 14.44109 -4.99033 2.01013
H 15.84890 -4.03630 1.44083
H 14.65580 -4.65137 0.22821
H 9.76757 -3.10990 0.04461
H 6.39704 -4.62144 2.26670
H 6.12038 -2.76631 2.34355
H 7.08635 -3.71099 3.50402

