%nproc=24
%mem=175gb
#p cam-b3lyp/Def2SVP td=(nstates=5)

TDDFT excited states in gaussian

0 1
Mg 0.00000 0.00000 0.00000
C -0.21700 -2.21800 2.80100
C -1.25500 2.44200 2.02600
C -0.24500 1.85000 -2.56400
C 0.14600 -2.82400 -2.03700
N -0.61700 -0.00900 2.12600
C -0.59400 -0.90800 3.10500
C -0.93600 -0.30900 4.50200
C -1.77300 0.96400 4.03200
C -1.15500 1.16800 2.66000
C -3.26300 0.68500 3.86300
C 0.34500 0.11000 5.29900
C 0.12400 0.39700 6.78700
H 1.16800 0.03300 7.73300
N -0.18500 1.96100 -0.15200
C -0.70300 2.80000 0.77700
C -0.62000 4.15600 0.19300
C -0.18700 4.01500 -1.22500
C -0.21400 2.58300 -1.38000
C -0.88700 5.40600 0.97400
C 0.18100 5.01300 -2.27700
O 0.30300 4.69000 -3.50800
C 0.31000 6.41400 -1.83700
N -0.26500 -0.41300 -2.02900
C -0.27900 0.56900 -2.93700
C -0.19600 0.02400 -4.33200
C 0.12400 -1.53300 -4.18000
C 0.08600 -1.63200 -2.63500
C -1.45100 0.20500 -5.19700
C 1.37300 -2.07000 -4.92300
C 2.62600 -1.49000 -4.30600
N 0.15000 -2.14400 0.30300
C 0.17300 -3.13600 -0.68800
C 0.17300 -4.43800 0.00400
C 0.13300 -4.11100 1.35800
C 0.08300 -2.69500 1.50200
C 0.14900 -5.71500 -0.62300
C 0.09600 -4.62900 2.71600
O 0.20800 -5.74700 3.22100
C -0.25500 -3.42800 3.70100
C 0.71700 -3.48200 4.84800
O 1.93100 -3.25500 4.66900
O 0.03800 -3.55600 6.00300
C 0.94300 -3.58300 7.18300
H -1.85900 3.22000 2.49700
H -0.21800 2.45300 -3.47400
H 0.27600 -3.74700 -2.60500
H -1.55400 -0.94900 5.13200
H -1.58500 1.83100 4.66500
H -3.48400 -0.37700 3.96900
H -3.51100 1.02700 2.85800
H -3.85200 1.30100 4.54300
H 0.66900 1.09600 4.96600
H 1.13000 -0.63900 5.18900
H -0.84400 0.02600 7.12500
H 0.06200 1.47700 6.92100
H -1.34400 5.18600 1.93800
H -1.65100 5.96300 0.43200
H 0.00700 6.02000 1.08400
H -0.63500 6.74400 -1.40500
H 0.66500 6.97000 -2.70400
H 1.04800 6.46600 -1.03600
H 0.60800 0.50100 -4.89100
H -0.69200 -2.15600 -4.54700
H -1.26700 0.74000 -6.12900
H -2.20400 0.71400 -4.59600
H -1.96700 -0.72000 -5.45300
H 1.35600 -1.75900 -5.96700
H 1.45200 -3.15700 -4.90200
H 2.71400 -0.52200 -4.79800
H 3.48700 -2.12100 -4.52900
H 2.49500 -1.30300 -3.24000
H 0.86700 -6.33300 -0.08400
H 0.40400 -5.64200 -1.68000
H -0.89100 -5.99900 -0.46300
H -1.28300 -3.58100 4.02800
H 0.69800 -4.47800 7.75500
H 0.83300 -2.61900 7.68000
H 2.00000 -3.75400 6.97600
Mg 8.94080 0.80764 0.67105
C 11.70638 -1.43060 1.14105
C 11.10530 3.37192 1.28262
C 6.44841 2.77079 0.70911
C 6.82821 -1.90763 1.22780
N 11.10250 0.83972 1.13825
C 12.06211 -0.06862 1.22994
C 13.49427 0.51839 1.34780
C 13.11536 1.95756 1.95118
C 11.69790 2.08909 1.39786
C 13.03898 1.97270 3.46883
C 14.20350 0.64844 -0.04579
C 15.70766 0.92191 0.02116
H 16.56931 0.32652 -0.99645
N 8.85644 2.78012 0.46909
C 9.83505 3.66859 0.74152
C 9.26876 4.99390 0.44651
C 7.82308 4.82752 0.13501
C 7.64465 3.42496 0.45292
C 10.10104 6.24231 0.39965
C 6.77180 5.77707 -0.35425
O 5.52659 5.47437 -0.32874
C 7.23498 7.10684 -0.77691
N 6.93414 0.52980 1.13847
C 6.05128 1.53723 1.02204
C 4.63214 1.03572 1.14424
C 4.73725 -0.55995 1.12537
C 6.27366 -0.71188 1.08348
C 3.87468 1.48084 2.39504
C 3.89114 -1.30843 0.05928
C 4.41812 -1.00411 -1.32458
N 9.18191 -1.32456 0.92331
C 8.16673 -2.27438 1.17101
C 8.83128 -3.57662 1.38308
C 10.19917 -3.28740 1.26591
C 10.37573 -1.89899 1.01966
C 8.17833 -4.80338 1.69102
C 11.53441 -3.83903 1.30511
O 12.00359 -4.97317 1.39072
C 12.57574 -2.63910 1.35167
C 13.64908 -2.91585 0.33488
O 13.37992 -2.93466 -0.87913
O 14.84862 -2.89674 0.94408
C 15.94631 -3.15523 -0.02550
H 11.64531 4.23069 1.68236
H 5.54818 3.38388 0.62433
H 6.23435 -2.82049 1.30956
H 14.14739 -0.01103 2.03112
H 13.75637 2.73662 1.54677
H 13.13657 0.98188 3.88704
H 12.07094 2.39170 3.71049
H 13.77853 2.66778 3.87658
H 13.86626 1.57162 -0.53442
H 14.02053 -0.21955 -0.64889
H 16.11521 0.74149 1.02330
H 15.87430 1.98853 -0.14791
H 11.09524 6.07949 0.83379
H 9.62743 6.96771 1.06998
H 10.15901 6.67253 -0.60246
H 7.74338 7.59266 0.05253
H 6.35270 7.60999 -1.17727
H 7.97847 6.98194 -1.57205
H 4.03396 1.35849 0.30097
H 4.40360 -1.00153 2.07591
H 2.93182 2.01332 2.16796
H 4.53065 2.10487 2.98734
H 3.62399 0.68264 3.09163
H 2.85669 -0.95691 0.08171
H 3.86907 -2.38362 0.20234
H 3.94279 -0.04842 -1.56500
H 4.12111 -1.78039 -2.02687
H 5.50147 -0.83784 -1.30540
H 8.64561 -5.56611 1.08242
H 7.10860 -4.74281 1.50189
H 8.40274 -4.88124 2.75819
H 12.97491 -2.59091 2.36554
H 16.51662 -4.00725 0.35726
H 16.48493 -2.19466 -0.13004
H 15.67076 -3.51093 -1.01140

