%nproc=24
%mem=175gb
#p cam-b3lyp/Def2SVP td=(nstates=5)

TDDFT excited states in gaussian

0 1
Mg 0.00000 0.00000 0.00000
C -0.21700 -2.21800 2.80100
C -1.25500 2.44200 2.02600
C -0.24500 1.85000 -2.56400
C 0.14600 -2.82400 -2.03700
N -0.61700 -0.00900 2.12600
C -0.59400 -0.90800 3.10500
C -0.93600 -0.30900 4.50200
C -1.77300 0.96400 4.03200
C -1.15500 1.16800 2.66000
C -3.26300 0.68500 3.86300
C 0.34500 0.11000 5.29900
C 0.12400 0.39700 6.78700
H 1.16800 0.03300 7.73300
N -0.18500 1.96100 -0.15200
C -0.70300 2.80000 0.77700
C -0.62000 4.15600 0.19300
C -0.18700 4.01500 -1.22500
C -0.21400 2.58300 -1.38000
C -0.88700 5.40600 0.97400
C 0.18100 5.01300 -2.27700
O 0.30300 4.69000 -3.50800
C 0.31000 6.41400 -1.83700
N -0.26500 -0.41300 -2.02900
C -0.27900 0.56900 -2.93700
C -0.19600 0.02400 -4.33200
C 0.12400 -1.53300 -4.18000
C 0.08600 -1.63200 -2.63500
C -1.45100 0.20500 -5.19700
C 1.37300 -2.07000 -4.92300
C 2.62600 -1.49000 -4.30600
N 0.15000 -2.14400 0.30300
C 0.17300 -3.13600 -0.68800
C 0.17300 -4.43800 0.00400
C 0.13300 -4.11100 1.35800
C 0.08300 -2.69500 1.50200
C 0.14900 -5.71500 -0.62300
C 0.09600 -4.62900 2.71600
O 0.20800 -5.74700 3.22100
C -0.25500 -3.42800 3.70100
C 0.71700 -3.48200 4.84800
O 1.93100 -3.25500 4.66900
O 0.03800 -3.55600 6.00300
C 0.94300 -3.58300 7.18300
H -1.85900 3.22000 2.49700
H -0.21800 2.45300 -3.47400
H 0.27600 -3.74700 -2.60500
H -1.55400 -0.94900 5.13200
H -1.58500 1.83100 4.66500
H -3.48400 -0.37700 3.96900
H -3.51100 1.02700 2.85800
H -3.85200 1.30100 4.54300
H 0.66900 1.09600 4.96600
H 1.13000 -0.63900 5.18900
H -0.84400 0.02600 7.12500
H 0.06200 1.47700 6.92100
H -1.34400 5.18600 1.93800
H -1.65100 5.96300 0.43200
H 0.00700 6.02000 1.08400
H -0.63500 6.74400 -1.40500
H 0.66500 6.97000 -2.70400
H 1.04800 6.46600 -1.03600
H 0.60800 0.50100 -4.89100
H -0.69200 -2.15600 -4.54700
H -1.26700 0.74000 -6.12900
H -2.20400 0.71400 -4.59600
H -1.96700 -0.72000 -5.45300
H 1.35600 -1.75900 -5.96700
H 1.45200 -3.15700 -4.90200
H 2.71400 -0.52200 -4.79800
H 3.48700 -2.12100 -4.52900
H 2.49500 -1.30300 -3.24000
H 0.86700 -6.33300 -0.08400
H 0.40400 -5.64200 -1.68000
H -0.89100 -5.99900 -0.46300
H -1.28300 -3.58100 4.02800
H 0.69800 -4.47800 7.75500
H 0.83300 -2.61900 7.68000
H 2.00000 -3.75400 6.97600
Mg 7.87476 0.71197 0.59275
C 7.92897 -2.05314 -1.69424
C 8.23287 2.76145 -2.11021
C 8.28232 3.13065 2.60553
C 8.66451 -1.54737 3.12601
N 8.04667 0.28997 -1.57165
C 7.99248 -0.79523 -2.32911
C 7.92622 -0.51258 -3.85400
C 8.59984 0.94519 -3.85785
C 8.24506 1.38214 -2.43804
C 10.11397 0.90815 -3.98190
C 6.45216 -0.46561 -4.38969
C 6.32036 -0.50200 -5.91385
H 5.18576 -1.21221 -6.49760
N 7.71997 2.66837 0.29764
C 7.87319 3.33002 -0.86856
C 7.68007 4.75359 -0.55183
C 7.56355 4.89392 0.92514
C 7.87845 3.54280 1.34395
C 7.54289 5.81096 -1.60851
C 7.23693 6.05538 1.81425
O 7.42491 6.00725 3.08121
C 6.77860 7.28290 1.14744
N 8.60365 0.82103 2.53676
C 8.62468 1.98894 3.20269
C 8.92849 1.77676 4.66661
C 8.86818 0.19477 4.89301
C 8.61688 -0.25963 3.43844
C 10.27748 2.30872 5.14997
C 7.91321 -0.32128 6.00404
C 6.47637 -0.06769 5.60835
N 8.05549 -1.43437 0.76192
C 8.42144 -2.17176 1.90927
C 8.51954 -3.58875 1.50314
C 8.22398 -3.57431 0.13168
C 7.98008 -2.23984 -0.29164
C 8.89157 -4.67238 2.34781
C 8.07327 -4.38324 -1.05644
O 8.07531 -5.59100 -1.29107
C 7.99961 -3.41931 -2.31810
C 6.84276 -3.86006 -3.17247
O 5.67599 -3.77089 -2.75138
O 7.28487 -4.10842 -4.41876
C 6.17183 -4.53826 -5.30656
H 8.57085 3.47619 -2.86107
H 8.33027 3.91468 3.36480
H 8.80990 -2.32559 3.87828
H 8.50601 -1.19172 -4.46749
H 8.12614 1.59727 -4.58707
H 10.49810 -0.09965 -3.92795
H 10.49112 1.50134 -3.15914
H 10.43016 1.42240 -4.89399
H 6.02942 0.52708 -4.18820
H 5.86440 -1.25186 -3.95729
H 7.25514 -0.80451 -6.40131
H 6.14874 0.51608 -6.27172
H 7.83613 5.43338 -2.59586
H 8.28334 6.58611 -1.38325
H 6.54967 6.26477 -1.62384
H 7.54015 7.61993 0.44821
H 6.50959 7.96968 1.95232
H 5.88844 7.04699 0.55366
H 8.17927 2.24972 5.28957
H 9.84729 -0.21270 5.18481
H 10.18880 3.02867 5.98536
H 10.78655 2.76198 4.30977
H 10.98768 1.54684 5.46676
H 8.08097 0.22885 6.93322
H 8.03943 -1.37555 6.22671
H 6.31871 0.97349 5.90531
H 5.80730 -0.73696 6.14544
H 6.35214 -0.12266 4.52060
H 8.21249 -5.48552 2.12839
H 8.84949 -4.39059 3.39785
H 9.91723 -4.84071 2.00877
H 8.95106 -3.49689 -2.84564
H 6.45948 -5.50327 -5.73515
H 6.01215 -3.70128 -6.01204
H 5.22612 -4.78763 -4.83976

