%nproc=24
%mem=175gb
#p cam-b3lyp/Def2SVP td=(nstates=5)

TDDFT excited states in gaussian

0 1
Mg 31.54066 2.83388 2.39059
C 31.44391 4.34733 -0.86198
C 31.04497 -0.16622 0.84517
C 31.17118 1.52964 5.25936
C 30.88641 5.98647 3.72431
N 31.29245 2.28952 0.26119
C 31.33527 2.94135 -0.89103
C 31.33807 2.02863 -2.14662
C 30.64088 0.73280 -1.50349
C 31.04286 0.93779 -0.04436
C 29.12392 0.76050 -1.58942
C 32.78942 1.70958 -2.65042
C 32.86298 1.08299 -4.04460
H 33.98578 1.43717 -4.90851
N 31.65172 0.93684 2.96285
C 31.44281 -0.15674 2.20015
C 31.62452 -1.31115 3.09373
C 31.79553 -0.80644 4.48323
C 31.51930 0.60266 4.28772
C 31.70346 -2.72384 2.59223
C 32.13700 -1.48246 5.77652
O 31.99880 -0.88842 6.90384
C 32.54902 -2.89116 5.69111
N 30.88552 3.59418 4.21132
C 30.87093 2.82732 5.31570
C 30.62729 3.65772 6.55322
C 30.72232 5.18061 6.07430
C 30.92483 4.95735 4.55953
C 29.28935 3.42796 7.25573
C 31.72776 6.09388 6.82776
C 33.14392 5.64975 6.54029
N 31.40195 4.84897 1.62362
C 31.09267 6.01911 2.35107
C 31.00234 7.12616 1.37705
C 31.24456 6.51420 0.13797
C 31.44996 5.12042 0.32421
C 30.68102 8.47878 1.68249
C 31.36268 6.72857 -1.28639
O 31.37149 7.71753 -2.01824
C 31.37179 5.31405 -2.01127
C 32.50196 5.30804 -3.00383
O 33.68245 5.37192 -2.61788
O 32.01630 5.01023 -4.22277
C 33.10124 4.98138 -5.23958
H 30.66658 -1.12333 0.48511
H 31.13962 1.15014 6.28331
H 30.78295 7.01667 4.07168
H 30.74633 2.39590 -2.97652
H 31.07533 -0.18400 -1.89350
H 28.75880 1.70514 -1.96425
H 28.76903 0.59085 -0.58129
H 28.76439 -0.08570 -2.18189
H 33.20320 0.88719 -2.05275
H 33.40627 2.58644 -2.61534
H 31.91521 1.17577 -4.58873
H 33.00389 0.00510 -3.93361
H 31.37865 -2.79841 1.54708
H 30.95957 -3.30313 3.14984
H 32.68774 -3.17115 2.74639
H 31.75566 -3.47194 5.22665
H 32.83751 -3.17328 6.70554
H 33.41941 -2.96158 5.02923
H 31.39207 3.47523 7.29815
H 29.76202 5.70452 6.18911
H 29.39828 3.13471 8.31696
H 28.74089 2.67376 6.70718
H 28.60452 4.27395 7.23296
H 31.58689 6.00224 7.90754
H 31.62759 7.14486 6.57797
H 33.29574 4.83299 7.25229
H 33.84412 6.46351 6.71794
H 33.22703 5.22779 5.53198
H 31.36444 9.09680 1.11549
H 30.75889 8.67464 2.74989
H 29.64597 8.51717 1.33254
H 30.40212 5.18718 -2.49420
H 32.81322 5.67691 -6.03392
H 33.21982 3.91783 -5.51984
H 34.06821 5.37734 -4.95212

