%nproc=24
%mem=175gb
#p cam-b3lyp/Def2SVP td=(nstates=5)

TDDFT excited states in gaussian

0 1
Mg 0.00000 0.00000 0.00000
C -0.21700 -2.21800 2.80100
C -1.25500 2.44200 2.02600
C -0.24500 1.85000 -2.56400
C 0.14600 -2.82400 -2.03700
N -0.61700 -0.00900 2.12600
C -0.59400 -0.90800 3.10500
C -0.93600 -0.30900 4.50200
C -1.77300 0.96400 4.03200
C -1.15500 1.16800 2.66000
C -3.26300 0.68500 3.86300
C 0.34500 0.11000 5.29900
C 0.12400 0.39700 6.78700
H 1.16800 0.03300 7.73300
N -0.18500 1.96100 -0.15200
C -0.70300 2.80000 0.77700
C -0.62000 4.15600 0.19300
C -0.18700 4.01500 -1.22500
C -0.21400 2.58300 -1.38000
C -0.88700 5.40600 0.97400
C 0.18100 5.01300 -2.27700
O 0.30300 4.69000 -3.50800
C 0.31000 6.41400 -1.83700
N -0.26500 -0.41300 -2.02900
C -0.27900 0.56900 -2.93700
C -0.19600 0.02400 -4.33200
C 0.12400 -1.53300 -4.18000
C 0.08600 -1.63200 -2.63500
C -1.45100 0.20500 -5.19700
C 1.37300 -2.07000 -4.92300
C 2.62600 -1.49000 -4.30600
N 0.15000 -2.14400 0.30300
C 0.17300 -3.13600 -0.68800
C 0.17300 -4.43800 0.00400
C 0.13300 -4.11100 1.35800
C 0.08300 -2.69500 1.50200
C 0.14900 -5.71500 -0.62300
C 0.09600 -4.62900 2.71600
O 0.20800 -5.74700 3.22100
C -0.25500 -3.42800 3.70100
C 0.71700 -3.48200 4.84800
O 1.93100 -3.25500 4.66900
O 0.03800 -3.55600 6.00300
C 0.94300 -3.58300 7.18300
H -1.85900 3.22000 2.49700
H -0.21800 2.45300 -3.47400
H 0.27600 -3.74700 -2.60500
H -1.55400 -0.94900 5.13200
H -1.58500 1.83100 4.66500
H -3.48400 -0.37700 3.96900
H -3.51100 1.02700 2.85800
H -3.85200 1.30100 4.54300
H 0.66900 1.09600 4.96600
H 1.13000 -0.63900 5.18900
H -0.84400 0.02600 7.12500
H 0.06200 1.47700 6.92100
H -1.34400 5.18600 1.93800
H -1.65100 5.96300 0.43200
H 0.00700 6.02000 1.08400
H -0.63500 6.74400 -1.40500
H 0.66500 6.97000 -2.70400
H 1.04800 6.46600 -1.03600
H 0.60800 0.50100 -4.89100
H -0.69200 -2.15600 -4.54700
H -1.26700 0.74000 -6.12900
H -2.20400 0.71400 -4.59600
H -1.96700 -0.72000 -5.45300
H 1.35600 -1.75900 -5.96700
H 1.45200 -3.15700 -4.90200
H 2.71400 -0.52200 -4.79800
H 3.48700 -2.12100 -4.52900
H 2.49500 -1.30300 -3.24000
H 0.86700 -6.33300 -0.08400
H 0.40400 -5.64200 -1.68000
H -0.89100 -5.99900 -0.46300
H -1.28300 -3.58100 4.02800
H 0.69800 -4.47800 7.75500
H 0.83300 -2.61900 7.68000
H 2.00000 -3.75400 6.97600
Mg 31.52323 2.84117 2.39089
C 31.09386 0.04530 0.18231
C 31.40734 4.84596 -0.36628
C 32.34792 5.27683 4.24962
C 32.73048 0.59882 4.76999
N 31.27776 2.38664 0.24021
C 31.06143 1.29291 -0.47484
C 30.71568 1.55660 -1.96497
C 31.40468 2.99885 -2.12011
C 31.33113 3.46248 -0.66673
C 32.86763 2.92652 -2.52493
C 29.16848 1.62918 -2.21579
C 28.75234 1.57540 -3.68741
H 27.51485 0.88286 -4.03594
N 31.35367 4.79643 2.09626
C 31.29810 5.43890 0.91076
C 31.19540 6.87051 1.23342
C 31.36083 7.03307 2.70343
C 31.72254 5.68099 3.07911
C 30.88284 7.91648 0.20305
C 31.22937 8.21326 3.61780
O 31.65078 8.17786 4.82775
C 30.67788 9.44166 3.02755
N 32.60592 2.95992 4.16177
C 32.77411 4.13585 4.79171
C 33.34307 3.93651 6.17624
C 33.29574 2.35941 6.43721
C 32.76722 1.89135 5.06353
C 34.76882 4.44475 6.38909
C 32.55641 1.87958 7.71620
C 31.07602 2.15974 7.59235
N 31.69096 0.69379 2.56024
C 32.25138 -0.03618 3.63129
C 32.24411 -1.46029 3.23850
C 31.69679 -1.45758 1.94663
C 31.40364 -0.12378 1.55352
C 32.74702 -2.54056 4.01710
C 31.31020 -2.27873 0.82193
O 31.24483 -3.48926 0.61196
C 31.01976 -1.33030 -0.42006
C 29.71484 -1.75658 -1.03486
O 28.64977 -1.63589 -0.40426
O 29.91036 -2.03130 -2.33742
C 28.64240 -2.44810 -2.99345
H 31.61218 5.54294 -1.17939
H 32.55264 6.06965 4.97282
H 32.99936 -0.17234 5.49503
H 31.15682 0.85662 -2.66440
H 30.81526 3.65152 -2.75883
H 33.23550 1.91123 -2.52651
H 33.40387 3.52210 -1.79776
H 33.01694 3.42140 -3.48885
H 28.81033 2.63362 -1.95584
H 28.65721 0.86202 -1.66742
H 29.57302 1.24572 -4.33606
H 28.53633 2.59218 -4.02433
H 30.97825 7.51934 -0.81508
H 31.66726 8.67791 0.27220
H 29.91335 8.39201 0.36621
H 31.30106 9.75233 2.19234
H 30.57800 10.14492 3.85660
H 29.68771 9.21770 2.61520
H 32.73333 4.43427 6.92026
H 34.30415 1.93421 6.54742
H 34.85241 5.17757 7.21375
H 35.11986 4.87534 5.46071
H 35.51099 3.67156 6.58034
H 32.90615 2.43818 8.58787
H 32.70176 0.82582 7.92945
H 30.99704 3.20803 7.89556
H 30.50680 1.51273 8.25674
H 30.74885 2.09305 6.54825
H 32.02324 -3.34127 3.94285
H 32.90817 -2.24393 5.05142
H 33.68739 -2.73616 3.49489
H 31.85365 -1.43604 -1.11506
H 28.82580 -3.42490 -3.45162
H 28.36938 -1.61726 -3.67088
H 27.79644 -2.67014 -2.35353

