%nproc=24
%mem=175gb
#p cam-b3lyp/Def2SVP td=(nstates=5)

TDDFT excited states in gaussian

0 1
Mg 10.51973 0.95099 0.80180
C 11.43095 -1.18764 3.53585
C 10.34373 3.50617 3.05451
C 9.28227 2.75785 -1.49414
C 9.66322 -1.92069 -0.97740
N 10.86567 1.02511 2.98517
C 11.26780 0.16329 3.90707
C 11.58609 0.79927 5.28685
C 10.67259 2.11411 5.16206
C 10.64939 2.25218 3.64118
C 9.24686 1.90438 5.64441
C 13.10386 1.16673 5.43980
C 13.54328 1.50400 6.86630
H 14.88206 1.10777 7.29424
N 10.37109 2.92495 0.66058
C 10.33700 3.81314 1.67608
C 10.19964 5.13660 1.04860
C 9.98974 4.94370 -0.41204
C 9.84904 3.50255 -0.47006
C 10.35091 6.41941 1.81342
C 9.91381 5.89939 -1.56403
O 9.48735 5.53301 -2.71587
C 10.26489 7.29840 -1.27947
N 9.40807 0.50599 -0.89777
C 9.04113 1.47323 -1.75668
C 8.49358 0.88747 -3.03631
C 8.79474 -0.68101 -2.95420
C 9.41147 -0.74657 -1.53972
C 7.00110 1.10662 -3.28304
C 9.58505 -1.30865 -4.13495
C 11.00120 -0.77974 -4.14717
N 10.70332 -1.18010 1.10643
C 10.25529 -2.20644 0.24620
C 10.50085 -3.49003 0.93506
C 11.05798 -3.11737 2.16763
C 11.13429 -1.70072 2.24997
C 10.17088 -4.78026 0.43255
C 11.58907 -3.59992 3.42214
O 11.85450 -4.70899 3.88392
C 11.73737 -2.36793 4.41542
C 13.10274 -2.43864 5.04254
O 14.12499 -2.29436 4.34913
O 12.97265 -2.44712 6.38170
C 14.30058 -2.50542 7.04881
H 10.03876 4.32409 3.70787
H 8.94071 3.32997 -2.35988
H 9.51424 -2.86487 -1.50562
H 11.27505 0.21013 6.14121
H 11.15595 2.97542 5.61578
H 9.05014 0.86955 5.88226
H 8.61051 2.23378 4.83349
H 9.03180 2.56960 6.48558
H 13.28923 2.13272 4.95274
H 13.72621 0.38750 5.04468
H 12.79655 1.20075 7.61020
H 13.59460 2.59097 6.96575
H 10.33571 6.24614 2.89654
H 9.45161 7.01443 1.62088
H 11.22720 6.99323 1.50438
H 9.61076 7.68371 -0.50094
H 10.23700 7.80873 -2.24418
H 11.28390 7.32864 -0.87783
H 9.00341 1.29851 -3.89900
H 7.86808 -1.27264 -2.92072
H 6.78745 1.61762 -4.24081
H 6.59707 1.67052 -2.45279
H 6.39290 0.20383 -3.26690
H 9.13673 -1.01743 -5.08802
H 9.61117 -2.39293 -4.10931
H 10.90343 0.17523 -4.67212
H 11.65947 -1.45973 -4.68414
H 11.34913 -0.56292 -3.13052
H 11.01687 -5.42147 0.64148
H 9.94923 -4.74753 -0.63214
H 9.28242 -5.00098 1.03020
H 10.94162 -2.44742 5.15706
H 14.28576 -3.37380 7.71468
H 14.44321 -1.51361 7.51756
H 15.16263 -2.72750 6.43076

