%nproc=24
%mem=175gb
#p cam-b3lyp/Def2SVP td=(nstates=5)

TDDFT excited states in gaussian

0 1
Mg 0.00000 0.00000 0.00000
C -0.21700 -2.21800 2.80100
C -1.25500 2.44200 2.02600
C -0.24500 1.85000 -2.56400
C 0.14600 -2.82400 -2.03700
N -0.61700 -0.00900 2.12600
C -0.59400 -0.90800 3.10500
C -0.93600 -0.30900 4.50200
C -1.77300 0.96400 4.03200
C -1.15500 1.16800 2.66000
C -3.26300 0.68500 3.86300
C 0.34500 0.11000 5.29900
C 0.12400 0.39700 6.78700
H 1.16800 0.03300 7.73300
N -0.18500 1.96100 -0.15200
C -0.70300 2.80000 0.77700
C -0.62000 4.15600 0.19300
C -0.18700 4.01500 -1.22500
C -0.21400 2.58300 -1.38000
C -0.88700 5.40600 0.97400
C 0.18100 5.01300 -2.27700
O 0.30300 4.69000 -3.50800
C 0.31000 6.41400 -1.83700
N -0.26500 -0.41300 -2.02900
C -0.27900 0.56900 -2.93700
C -0.19600 0.02400 -4.33200
C 0.12400 -1.53300 -4.18000
C 0.08600 -1.63200 -2.63500
C -1.45100 0.20500 -5.19700
C 1.37300 -2.07000 -4.92300
C 2.62600 -1.49000 -4.30600
N 0.15000 -2.14400 0.30300
C 0.17300 -3.13600 -0.68800
C 0.17300 -4.43800 0.00400
C 0.13300 -4.11100 1.35800
C 0.08300 -2.69500 1.50200
C 0.14900 -5.71500 -0.62300
C 0.09600 -4.62900 2.71600
O 0.20800 -5.74700 3.22100
C -0.25500 -3.42800 3.70100
C 0.71700 -3.48200 4.84800
O 1.93100 -3.25500 4.66900
O 0.03800 -3.55600 6.00300
C 0.94300 -3.58300 7.18300
H -1.85900 3.22000 2.49700
H -0.21800 2.45300 -3.47400
H 0.27600 -3.74700 -2.60500
H -1.55400 -0.94900 5.13200
H -1.58500 1.83100 4.66500
H -3.48400 -0.37700 3.96900
H -3.51100 1.02700 2.85800
H -3.85200 1.30100 4.54300
H 0.66900 1.09600 4.96600
H 1.13000 -0.63900 5.18900
H -0.84400 0.02600 7.12500
H 0.06200 1.47700 6.92100
H -1.34400 5.18600 1.93800
H -1.65100 5.96300 0.43200
H 0.00700 6.02000 1.08400
H -0.63500 6.74400 -1.40500
H 0.66500 6.97000 -2.70400
H 1.04800 6.46600 -1.03600
H 0.60800 0.50100 -4.89100
H -0.69200 -2.15600 -4.54700
H -1.26700 0.74000 -6.12900
H -2.20400 0.71400 -4.59600
H -1.96700 -0.72000 -5.45300
H 1.35600 -1.75900 -5.96700
H 1.45200 -3.15700 -4.90200
H 2.71400 -0.52200 -4.79800
H 3.48700 -2.12100 -4.52900
H 2.49500 -1.30300 -3.24000
H 0.86700 -6.33300 -0.08400
H 0.40400 -5.64200 -1.68000
H -0.89100 -5.99900 -0.46300
H -1.28300 -3.58100 4.02800
H 0.69800 -4.47800 7.75500
H 0.83300 -2.61900 7.68000
H 2.00000 -3.75400 6.97600
Mg 13.13954 1.18540 0.98782
C 15.53616 -1.25535 -0.09754
C 15.37253 3.58208 0.03687
C 11.24893 3.34360 2.34251
C 11.62919 -1.33465 2.86235
N 15.15986 1.05541 0.09693
C 15.94287 0.07537 -0.32822
C 17.19646 0.54783 -1.11234
C 17.31756 2.02852 -0.50261
C 15.85486 2.25916 -0.12844
C 18.15075 2.09036 0.76677
C 16.95396 0.58290 -2.66217
C 18.22011 0.73579 -3.50790
H 18.28612 0.04579 -4.79321
N 13.05018 3.15214 0.73778
C 14.04395 3.96571 0.32328
C 13.47904 5.32403 0.32506
C 12.12129 5.26659 0.93164
C 12.09521 3.89200 1.38983
C 14.18451 6.49950 -0.28649
C 11.03218 6.28445 1.08655
O 10.02790 6.08402 1.85732
C 11.22260 7.56072 0.38203
N 11.78268 1.08301 2.55969
C 11.05190 2.15492 2.91308
C 9.95447 1.77302 3.87754
C 9.94913 0.17414 3.91103
C 11.15611 -0.10234 2.98791
C 10.10242 2.31112 5.30054
C 8.60162 -0.53187 3.59728
C 8.22649 -0.30819 2.15000
N 13.37705 -0.95179 1.19771
C 12.65716 -1.80961 2.05793
C 13.25360 -3.15510 1.93003
C 14.30216 -2.98045 1.01432
C 14.36824 -1.61791 0.61608
C 12.84765 -4.31649 2.64591
C 15.37487 -3.63679 0.30213
O 15.74757 -4.80240 0.17489
C 16.30159 -2.52399 -0.35305
C 16.55459 -2.91356 -1.78369
O 15.62140 -2.94306 -2.60522
O 17.88189 -2.97502 -1.99551
C 18.18325 -3.34710 -3.40354
H 16.08608 4.40485 -0.01590
H 10.50327 4.02485 2.75888
H 11.15320 -2.19411 3.33926
H 18.09956 -0.01410 -0.90638
H 17.63488 2.74220 -1.25846
H 18.42677 1.10644 1.11585
H 17.53309 2.59243 1.49989
H 19.02184 2.73415 0.61492
H 16.43982 1.51688 -2.92310
H 16.40813 -0.28332 -2.98210
H 19.13024 0.54993 -2.92476
H 18.30772 1.78057 -3.81575
H 15.23405 6.26865 -0.50686
H 14.23332 7.27843 0.48212
H 13.66222 6.89668 -1.15949
H 12.14532 8.02594 0.72059
H 10.30006 8.12254 0.54062
H 11.34765 7.35500 -0.68692
H 8.99122 2.12034 3.52451
H 10.21813 -0.21349 4.90462
H 9.23456 2.91169 5.63251
H 11.01131 2.89580 5.35159
H 10.27108 1.55468 6.06510
H 7.79790 -0.09754 4.19692
H 8.61487 -1.59756 3.80006
H 7.74879 0.67596 2.16815
H 7.53478 -1.07648 1.81041
H 9.11978 -0.22944 1.51954
H 12.82824 -5.13045 1.93346
H 11.87644 -4.17486 3.11546
H 13.65345 -4.38363 3.38174
H 17.22319 -2.48106 0.22867
H 18.82653 -4.23182 -3.36953
H 18.60364 -2.43627 -3.86981
H 17.36261 -3.70565 -4.01382

