%nproc=24
%mem=175gb
#p cam-b3lyp/Def2SVP td=(nstates=5)

TDDFT excited states in gaussian

0 1
Mg 7.88065 0.71415 0.60812
C 5.76931 -1.81683 2.02778
C 5.22249 2.84084 0.82251
C 9.56722 2.83051 -1.04836
C 9.95064 -1.84775 -0.53096
N 5.81557 0.43155 1.34829
C 5.14515 -0.55643 1.92169
C 3.75528 -0.15074 2.48137
C 3.48335 1.12672 1.54702
C 4.92775 1.51949 1.24355
C 2.79758 0.77863 0.23633
C 3.81488 0.24881 3.99755
C 2.45353 0.35754 4.68794
H 2.34794 -0.04897 6.08654
N 7.64668 2.67549 0.41581
C 6.50246 3.37646 0.55964
C 6.85474 4.78019 0.29581
C 8.26508 4.82904 -0.17671
C 8.54729 3.41396 -0.31087
C 5.91765 5.91999 0.57175
C 9.20034 5.96213 -0.47269
O 10.30314 5.77873 -1.09960
C 8.74379 7.30614 -0.08972
N 9.40483 0.51745 -0.79206
C 10.00219 1.60002 -1.32039
C 11.24529 1.21719 -2.08754
C 11.49313 -0.32847 -1.76032
C 10.24537 -0.60691 -0.89373
C 11.17876 1.41218 -3.60212
C 12.88732 -0.71317 -1.19384
C 13.06052 -0.13089 0.19048
N 7.99006 -1.42813 0.86641
C 8.92168 -2.31168 0.27862
C 8.52240 -3.68201 0.65966
C 7.36372 -3.50064 1.42977
C 7.05071 -2.11651 1.50534
C 9.17480 -4.88109 0.25631
C 6.32822 -4.16614 2.18710
O 6.12196 -5.32531 2.54419
C 5.17825 -3.11522 2.50260
C 4.82783 -3.23386 3.96056
O 5.65711 -2.93137 4.83657
O 3.50933 -3.47467 4.07866
C 3.11131 -3.58944 5.50702
H 4.39267 3.52265 0.63429
H 10.24460 3.52626 -1.54892
H 10.60001 -2.69413 -0.76468
H 2.97503 -0.88871 2.33855
H 2.98042 1.91816 2.09660
H 2.71244 -0.28887 0.09727
H 3.41141 1.21373 -0.54145
H 1.82863 1.28202 0.17255
H 4.15129 1.29031 4.08042
H 4.44473 -0.42535 4.54475
H 1.65239 -0.09847 4.09366
H 2.17694 1.41310 4.74548
H 4.89637 5.56516 0.75747
H 5.83933 6.50078 -0.35368
H 6.27376 6.57414 1.37046
H 7.80566 7.52612 -0.59370
H 9.58394 7.97098 -0.29951
H 8.53207 7.31058 0.98535
H 12.10024 1.78954 -1.74903
H 11.39792 -0.95556 -2.65895
H 11.97881 2.06872 -3.99323
H 10.20421 1.80973 -3.85261
H 11.21161 0.49501 -4.18770
H 13.67912 -0.28367 -1.81250
H 13.05619 -1.78404 -1.15232
H 13.38484 0.89428 -0.01182
H 13.81685 -0.68180 0.74591
H 12.10062 -0.07514 0.71691
H 9.23575 -5.51237 1.13282
H 10.16032 -4.67768 -0.15739
H 8.47551 -5.23700 -0.50500
H 4.33152 -3.35259 1.85741
H 2.61530 -4.55797 5.62364
H 2.51008 -2.68635 5.72310
H 3.90282 -3.66718 6.24318

