%nproc=24
%mem=175gb
#p cam-b3lyp/Def2SVP td=(nstates=5)

TDDFT excited states in gaussian

0 1
Mg 8.94068 0.81264 0.67991
C 8.40072 1.58235 4.14330
C 7.82900 3.95645 -0.03790
C 8.97667 0.01678 -2.39137
C 8.90757 -2.55745 1.56710
N 8.23496 2.46344 1.97183
C 8.13183 2.66265 3.27722
C 7.79496 4.12333 3.68031
C 7.09134 4.59326 2.31540
C 7.78235 3.63935 1.34318
C 5.59831 4.31227 2.28026
C 9.07985 4.97065 3.98548
C 8.81784 6.30844 4.68077
H 9.78949 6.78549 5.66096
N 8.94485 1.95510 -0.94285
C 8.47439 3.21526 -1.05203
C 8.69137 3.60569 -2.45369
C 9.17746 2.41496 -3.20243
C 9.02877 1.38843 -2.19039
C 8.51540 5.01400 -2.94268
C 9.67943 2.22839 -4.60222
O 9.82428 1.06306 -5.11589
C 9.90752 3.45156 -5.38538
N 8.73096 -1.00443 -0.30832
C 8.83969 -1.08027 -1.64636
C 8.92898 -2.51598 -2.10588
C 9.10162 -3.38356 -0.77356
C 8.98777 -2.25800 0.27789
C 7.73085 -3.03606 -2.89986
C 10.32721 -4.33554 -0.70751
C 11.60467 -3.52912 -0.65123
N 8.88595 -0.30941 2.52546
C 8.85278 -1.71380 2.66921
C 8.70444 -2.00050 4.11082
C 8.63792 -0.73273 4.70817
C 8.71747 0.27301 3.70735
C 8.60016 -3.29419 4.69528
C 8.50783 -0.01666 5.95677
O 8.48876 -0.33763 7.14435
C 8.22128 1.51318 5.63448
C 9.13547 2.34716 6.48961
O 10.36724 2.30783 6.32287
O 8.39785 3.21097 7.21081
C 9.26077 4.06787 8.06690
H 7.28462 4.83418 -0.38737
H 9.09700 -0.31309 -3.42586
H 8.98767 -3.58283 1.93432
H 7.10188 4.21792 4.50763
H 7.33878 5.62472 2.07825
H 5.27700 3.73389 3.13371
H 5.42373 3.76361 1.36399
H 5.04080 5.24815 2.18202
H 9.50446 5.33055 3.03948
H 9.78643 4.39939 4.55560
H 7.80074 6.36982 5.08659
H 8.85561 7.10245 3.93101
H 7.99255 5.63393 -2.20395
H 7.83027 4.97281 -3.79636
H 9.45469 5.46844 -3.26497
H 8.98070 4.01651 -5.45087
H 10.34918 3.11794 -6.32639
H 10.62360 4.08290 -4.84755
H 9.79549 -2.66653 -2.73802
H 8.24516 -4.05408 -0.61012
H 8.00496 -3.42610 -3.89826
H 7.00763 -2.23640 -2.98943
H 7.15317 -3.81581 -2.40643
H 10.38370 -4.94360 -1.61372
H 10.29992 -5.01687 0.13631
H 11.79596 -3.29613 -1.70300
H 12.41245 -4.12038 -0.22469
H 11.44785 -2.57953 -0.12650
H 9.22885 -3.28965 5.57575
H 8.89988 -4.07181 3.99582
H 7.52853 -3.32562 4.90953
H 7.16979 1.70276 5.85360
H 8.90747 3.95006 9.09597
H 9.20439 5.08171 7.62792
H 10.30280 3.78772 8.16767

