%nproc=24
%mem=175gb
#p cam-b3lyp/Def2SVP td=(nstates=5)

TDDFT excited states in gaussian

0 1
Mg 13.13565 1.17575 1.00538
C 11.26996 3.25685 3.25644
C 15.21242 0.46896 3.61728
C 15.05278 -0.29995 -1.04751
C 11.63691 2.91022 -1.61971
N 13.13687 1.83772 3.11584
C 12.34304 2.58010 3.87284
C 12.67274 2.53417 5.38900
C 14.22028 2.11777 5.28605
C 14.19050 1.39730 3.93968
C 15.15743 3.30841 5.17000
C 11.83495 1.44759 6.15023
C 11.87754 1.55511 7.67613
H 10.67495 1.21536 8.43166
N 14.57519 -0.15356 1.32036
C 15.29892 -0.31757 2.44757
C 16.24217 -1.41044 2.16462
C 16.12809 -1.76745 0.72439
C 15.24319 -0.71719 0.26177
C 17.07691 -2.06095 3.22927
C 16.72769 -2.86412 -0.10265
O 16.68127 -2.84386 -1.38337
C 17.45205 -3.91466 0.62753
N 13.48262 1.42533 -1.02924
C 14.32854 0.61609 -1.69066
C 14.20880 0.80521 -3.18408
C 12.92923 1.74049 -3.39747
C 12.56753 2.01516 -1.92128
C 15.41914 1.43388 -3.87417
C 11.81852 1.20834 -4.34394
C 11.14923 0.00139 -3.72692
N 11.57880 2.66114 0.81076
C 11.12546 3.27073 -0.37961
C 10.13646 4.29794 0.00660
C 10.09973 4.22997 1.40750
C 11.01695 3.24489 1.86339
C 9.45071 5.16955 -0.88567
C 9.50137 4.77493 2.60486
O 8.59582 5.57489 2.83675
C 10.32478 4.25714 3.86196
C 9.34304 3.76144 4.88812
O 8.63480 2.76587 4.65607
O 9.55562 4.40710 6.04928
C 8.61323 3.94183 7.10154
H 16.05151 0.36137 4.30521
H 15.61048 -0.85528 -1.80518
H 11.05307 3.42587 -2.38516
H 12.57634 3.48259 5.90377
H 14.49794 1.42995 6.08051
H 14.61738 4.23665 5.05664
H 15.76895 3.11754 4.29784
H 15.84458 3.33160 6.02066
H 12.31331 0.46867 6.01744
H 10.81563 1.44930 5.81617
H 12.28207 2.51823 8.01035
H 12.58991 0.81881 8.05614
H 17.07011 -1.47754 4.15824
H 18.11752 -2.01906 2.88982
H 16.80281 -3.10410 3.40070
H 18.26158 -3.46543 1.19789
H 17.73070 -4.65467 -0.12521
H 16.76976 -4.36962 1.35424
H 14.03875 -0.14181 -3.68141
H 13.20228 2.70986 -3.83972
H 15.83380 0.80624 -4.68546
H 16.17349 1.63399 -3.12486
H 15.24735 2.42159 -4.29857
H 12.25432 0.87271 -5.28818
H 11.06331 1.94955 -4.58327
H 11.82220 -0.81832 -3.99577
H 10.15830 -0.14603 -4.15160
H 11.13829 0.07366 -2.63316
H 8.41886 5.19787 -0.56166
H 9.53549 4.83070 -1.91609
H 10.00086 6.09829 -0.71239
H 10.91713 5.09440 4.23303
H 8.09404 4.82783 7.47988
H 9.22863 3.37217 7.82302
H 7.77873 3.32474 6.78969

