%nproc=24
%mem=175gb
#p cam-b3lyp/Def2SVP td=(nstates=5)

TDDFT excited states in gaussian

0 1
Mg 8.94228 0.80092 0.67270
C 8.74036 3.07470 -2.09645
C 8.45670 -1.72946 -1.56247
C 8.66528 -1.18483 3.13186
C 8.27071 3.50664 2.76405
N 8.65002 0.79911 -1.51975
C 8.65369 1.71830 -2.47340
C 8.63997 1.14756 -3.91688
C 7.97994 -0.28253 -3.60376
C 8.41471 -0.43893 -2.14801
C 6.46106 -0.26736 -3.64960
C 10.08330 0.99583 -4.51337
C 10.13226 0.73821 -6.02102
H 11.22739 1.32089 -6.79150
N 9.09807 -1.17599 0.75092
C 8.88789 -2.04929 -0.25629
C 9.11032 -3.38572 0.31698
C 9.30768 -3.23960 1.78477
C 9.00402 -1.83260 1.95280
C 9.19951 -4.62680 -0.52278
C 9.69203 -4.20899 2.86123
O 9.57234 -3.91778 4.10369
C 10.12442 -5.54263 2.41862
N 8.32045 1.06903 2.63835
C 8.34567 0.05102 3.51638
C 8.11952 0.54130 4.92665
C 8.17808 2.13719 4.84126
C 8.34645 2.30294 3.31497
C 6.80333 0.11462 5.57625
C 9.18711 2.85557 5.77854
C 10.60265 2.52806 5.36096
N 8.75213 2.94005 0.43600
C 8.44222 3.88496 1.43858
C 8.30990 5.19758 0.77378
C 8.53107 4.91914 -0.58344
C 8.76344 3.52774 -0.75520
C 7.97454 6.42407 1.41359
C 8.61028 5.48422 -1.91126
O 8.58497 6.62432 -2.37308
C 8.62414 4.29553 -2.96634
C 9.72924 4.56169 -3.95144
O 10.91778 4.55309 -3.58551
O 9.21829 4.56653 -5.19614
C 10.27794 4.81565 -6.20950
H 8.08494 -2.57466 -2.14241
H 8.66529 -1.80812 4.02907
H 8.15935 4.41526 3.35960
H 8.02195 1.69708 -4.61677
H 8.41926 -1.06352 -4.21891
H 6.07157 0.73270 -3.76935
H 6.13411 -0.69058 -2.70884
H 6.10059 -0.94684 -4.42723
H 10.52500 0.05967 -4.14835
H 10.68663 1.84952 -4.27288
H 9.16989 0.94299 -6.50564
H 10.29323 -0.32999 -6.18548
H 8.85006 -4.44562 -1.54672
H 8.47914 -5.34284 -0.11264
H 10.19440 -5.07685 -0.50493
H 9.32921 -6.00649 1.83988
H 10.44254 -6.06230 3.32450
H 10.97911 -5.42690 1.74280
H 8.90542 0.19564 5.58694
H 7.21262 2.59490 5.10246
H 6.94331 -0.43140 6.52826
H 6.25361 -0.49085 4.86790
H 6.10461 0.92446 5.77913
H 9.07462 2.49468 6.80385
H 9.06385 3.93320 5.80108
H 10.78525 1.56315 5.84333
H 11.29385 3.28693 5.72205
H 10.66745 2.37260 4.27777
H 8.63361 7.17864 1.00524
H 8.07575 6.34939 2.49431
H 6.93062 6.52589 1.10514
H 7.64493 4.27191 -3.44611
H 9.95911 5.68074 -6.79912
H 10.40663 3.85834 -6.74871
H 11.24526 5.14845 -5.85174

