%nproc=24
%mem=175gb
#p cam-b3lyp/Def2SVP td=(nstates=5)

TDDFT excited states in gaussian

0 1
Mg 13.13715 1.17546 1.00553
C 10.95171 2.90907 3.26329
C 15.35317 0.91687 3.58565
C 15.26272 0.04954 -1.06370
C 11.29554 2.55151 -1.61375
N 13.04934 1.86302 3.10596
C 12.14298 2.45656 3.86790
C 12.50078 2.50002 5.37775
C 14.09705 2.37951 5.25016
C 14.18059 1.64261 3.91499
C 14.79179 3.72255 5.09876
C 11.89488 1.28919 6.17071
C 11.94205 1.42967 7.69380
H 10.83751 0.88378 8.47767
N 14.80584 0.14549 1.31082
C 15.56626 0.14002 2.42572
C 16.69314 -0.76137 2.13971
C 16.62405 -1.15876 0.70723
C 15.55001 -0.30143 0.24734
C 17.65292 -1.22491 3.19677
C 17.40505 -2.13793 -0.11587
O 17.33421 -2.14931 -1.39559
C 18.32598 -3.02093 0.61466
N 13.39695 1.44978 -1.03887
C 14.36862 0.80201 -1.70535
C 14.19050 0.93896 -3.19863
C 12.75463 1.61375 -3.39994
C 12.37255 1.84169 -1.92094
C 15.24948 1.77122 -3.92134
C 11.74796 0.86614 -4.31665
C 11.32774 -0.43385 -3.66948
N 11.32596 2.33884 0.82068
C 10.74632 2.83150 -0.36902
C 9.58858 3.66164 0.02205
C 9.58873 3.61270 1.42423
C 10.68216 2.82532 1.87582
C 8.73646 4.37330 -0.86876
C 8.91879 4.05678 2.62533
O 7.88310 4.67668 2.86371
C 9.84573 3.72487 3.87313
C 8.99191 3.07200 4.92541
O 8.47950 1.95734 4.72153
O 9.09883 3.76645 6.07288
C 8.27838 3.15131 7.15004
H 16.20892 0.98070 4.25832
H 15.90203 -0.40460 -1.82430
H 10.61250 2.93494 -2.37475
H 12.23658 3.42245 5.88083
H 14.51223 1.77008 6.04865
H 14.08516 4.53088 4.98294
H 15.41359 3.63440 4.21748
H 15.47649 3.88919 5.93527
H 12.54632 0.41517 6.04238
H 10.88793 1.09380 5.85686
H 12.16401 2.45731 8.00627
H 12.78631 0.84686 8.07006
H 17.55221 -0.63683 4.11733
H 18.66131 -0.99458 2.83628
H 17.58257 -2.29776 3.38835
H 19.04615 -2.41787 1.16250
H 18.72603 -3.70871 -0.13286
H 17.75356 -3.58290 1.36109
H 14.19306 -0.03176 -3.67904
H 12.83329 2.60919 -3.86119
H 15.76101 1.21827 -4.73169
H 15.96525 2.12243 -3.19000
H 14.88813 2.70154 -4.35622
H 12.22318 0.60160 -5.26446
H 10.86307 1.44821 -4.55148
H 12.13810 -1.11741 -3.93993
H 10.37516 -0.77197 -4.07237
H 11.32173 -0.34565 -2.57685
H 7.72323 4.21330 -0.52486
H 8.86612 4.03826 -1.89575
H 9.10519 5.39166 -0.71957
H 10.27639 4.66477 4.22052
H 7.60841 3.93074 7.52596
H 9.00181 2.71999 7.86722
H 7.56954 2.38326 6.86351

