%nproc=24
%mem=175gb
#p cam-b3lyp/Def2SVP td=(nstates=5)

TDDFT excited states in gaussian

0 1
Mg 10.51827 0.94577 0.80600
C 8.70707 -0.70941 3.42497
C 10.94053 3.56096 2.95473
C 11.72270 2.60939 -1.61250
C 9.00001 -1.24519 -1.43906
N 9.86267 1.26588 2.89406
C 9.23379 0.54182 3.80762
C 9.23543 1.16022 5.23139
C 9.44028 2.70014 4.82448
C 10.15787 2.50699 3.49015
C 8.13457 3.43233 4.56300
C 10.42485 0.63510 6.10977
C 10.31299 0.95596 7.60184
H 10.81131 -0.02336 8.56365
N 11.64237 2.58131 0.80598
C 11.70802 3.52358 1.76987
C 12.66430 4.53031 1.28388
C 13.03301 4.18926 -0.11700
C 12.11094 3.10143 -0.37488
C 13.19713 5.63256 2.15253
C 14.03904 4.75761 -1.07150
O 14.02486 4.46337 -2.31892
C 14.98301 5.74086 -0.52047
N 10.22383 0.85882 -1.25023
C 10.91201 1.66071 -2.08167
C 10.74028 1.23201 -3.51942
C 9.98520 -0.17652 -3.46048
C 9.76196 -0.28037 -1.93576
C 9.95463 2.19342 -4.41096
C 10.66139 -1.36866 -4.19140
C 11.94743 -1.74182 -3.48980
N 9.25528 -0.80123 0.95057
C 8.71176 -1.55140 -0.11522
C 7.82672 -2.57409 0.47911
C 7.89938 -2.33131 1.85906
C 8.75251 -1.22192 2.10587
C 7.05483 -3.52742 -0.24302
C 7.43999 -2.75454 3.16234
O 6.76890 -3.69586 3.58340
C 7.84287 -1.64376 4.22546
C 8.46616 -2.33569 5.40667
O 9.54773 -2.93796 5.28801
O 7.79810 -1.99058 6.52245
C 8.38596 -2.64324 7.72257
H 10.93468 4.52346 3.46703
H 12.19793 3.07906 -2.47682
H 8.56721 -2.02813 -2.06545
H 8.30868 1.04063 5.77966
H 10.08480 3.21359 5.53322
H 7.28721 2.76311 4.57892
H 8.24140 3.88431 3.58558
H 8.01957 4.26116 5.26737
H 11.33065 1.20363 5.86273
H 10.55992 -0.42064 5.97632
H 9.30436 1.28682 7.87782
H 10.94708 1.81878 7.81974
H 12.62016 5.72787 3.08065
H 13.01583 6.57366 1.62213
H 14.26768 5.53639 2.34579
H 14.42933 6.57867 -0.10338
H 15.67873 5.96444 -1.33157
H 15.52564 5.27712 0.31087
H 11.70143 1.09566 -3.99975
H 8.98783 -0.12375 -3.92124
H 10.52072 2.52319 -5.30251
H 9.65526 3.04480 -3.81425
H 8.99882 1.81462 -4.76891
H 10.93523 -1.08235 -5.20983
H 10.02823 -2.24671 -4.26294
H 12.66931 -1.03119 -3.90331
H 12.22644 -2.76775 -3.72148
H 11.87757 -1.55152 -2.41251
H 7.16538 -4.47221 0.27240
H 7.37896 -3.59862 -1.27919
H 6.06068 -3.08140 -0.15363
H 6.93377 -1.10659 4.49851
H 7.57778 -3.19200 8.21593
H 8.86803 -1.83096 8.29839
H 9.10941 -3.43348 7.55954

