%nproc=24
%mem=175gb
#p cam-b3lyp/Def2SVP td=(nstates=5)

TDDFT excited states in gaussian

0 1
Mg 31.52964 2.83172 2.40265
C 29.66395 4.91281 4.65371
C 33.60642 2.12493 5.01455
C 33.44677 1.35601 0.34977
C 30.03090 4.56619 -0.22243
N 31.53086 3.49369 4.51311
C 30.73703 4.23607 5.27011
C 31.06673 4.19014 6.78627
C 32.61427 3.77374 6.68332
C 32.58449 3.05327 5.33696
C 33.55143 4.96438 6.56728
C 30.22895 3.10356 7.54750
C 30.27153 3.21108 9.07341
H 29.06894 2.87133 9.82893
N 32.96918 1.50241 2.71763
C 33.69291 1.33840 3.84484
C 34.63616 0.24552 3.56189
C 34.52208 -0.11148 2.12167
C 33.63718 0.93877 1.65905
C 35.47090 -0.40499 4.62654
C 35.12168 -1.20815 1.29463
O 35.07526 -1.18789 0.01390
C 35.84604 -2.25869 2.02480
N 31.87662 3.08130 0.36804
C 32.72253 2.27205 -0.29339
C 32.60279 2.46118 -1.78680
C 31.32322 3.39645 -2.00020
C 30.96153 3.67112 -0.52401
C 33.81314 3.08985 -2.47689
C 30.21251 2.86431 -2.94667
C 29.54322 1.65736 -2.32965
N 29.97279 4.31711 2.20803
C 29.51945 4.92669 1.01767
C 28.53045 5.95390 1.40387
C 28.49372 5.88593 2.80477
C 29.41094 4.90086 3.26066
C 27.84470 6.82552 0.51160
C 27.89536 6.43089 4.00214
O 26.98981 7.23086 4.23403
C 28.71877 5.91311 5.25923
C 27.73704 5.41741 6.28539
O 27.02879 4.42184 6.05335
O 27.94961 6.06307 7.44656
C 27.00723 5.59780 8.49882
H 34.44550 2.01734 5.70248
H 34.00447 0.80069 -0.40790
H 29.44706 5.08184 -0.98788
H 30.97033 5.13855 7.30105
H 32.89193 3.08592 7.47779
H 33.01137 5.89262 6.45391
H 34.16294 4.77350 5.69512
H 34.23857 4.98757 7.41794
H 30.70730 2.12464 7.41471
H 29.20962 3.10526 7.21344
H 30.67606 4.17420 9.40763
H 30.98390 2.47478 9.45342
H 35.46410 0.17843 5.55551
H 36.51152 -0.36309 4.28710
H 35.19681 -1.44813 4.79797
H 36.65558 -1.80947 2.59516
H 36.12469 -2.99871 1.27207
H 35.16375 -2.71365 2.75151
H 32.43274 1.51416 -2.28414
H 31.59627 4.36583 -2.44245
H 34.22779 2.46220 -3.28819
H 34.56748 3.28996 -1.72759
H 33.64134 4.07756 -2.90130
H 30.64831 2.52868 -3.89090
H 29.45730 3.60551 -3.18599
H 30.21619 0.83765 -2.59850
H 28.55229 1.50994 -2.75433
H 29.53229 1.72963 -1.23589
H 26.81285 6.85383 0.83562
H 27.92949 6.48667 -0.51882
H 28.39486 7.75426 0.68488
H 29.31112 6.75037 5.63031
H 26.48803 6.48379 8.87715
H 27.62262 5.02814 9.22030
H 26.17272 4.98071 8.18696

