%nproc=24
%mem=175gb
#p cam-b3lyp/Def2SVP td=(nstates=5)

TDDFT excited states in gaussian

0 1
Mg 0.00000 0.00000 0.00000
C -0.21700 -2.21800 2.80100
C -1.25500 2.44200 2.02600
C -0.24500 1.85000 -2.56400
C 0.14600 -2.82400 -2.03700
N -0.61700 -0.00900 2.12600
C -0.59400 -0.90800 3.10500
C -0.93600 -0.30900 4.50200
C -1.77300 0.96400 4.03200
C -1.15500 1.16800 2.66000
C -3.26300 0.68500 3.86300
C 0.34500 0.11000 5.29900
C 0.12400 0.39700 6.78700
H 1.16800 0.03300 7.73300
N -0.18500 1.96100 -0.15200
C -0.70300 2.80000 0.77700
C -0.62000 4.15600 0.19300
C -0.18700 4.01500 -1.22500
C -0.21400 2.58300 -1.38000
C -0.88700 5.40600 0.97400
C 0.18100 5.01300 -2.27700
O 0.30300 4.69000 -3.50800
C 0.31000 6.41400 -1.83700
N -0.26500 -0.41300 -2.02900
C -0.27900 0.56900 -2.93700
C -0.19600 0.02400 -4.33200
C 0.12400 -1.53300 -4.18000
C 0.08600 -1.63200 -2.63500
C -1.45100 0.20500 -5.19700
C 1.37300 -2.07000 -4.92300
C 2.62600 -1.49000 -4.30600
N 0.15000 -2.14400 0.30300
C 0.17300 -3.13600 -0.68800
C 0.17300 -4.43800 0.00400
C 0.13300 -4.11100 1.35800
C 0.08300 -2.69500 1.50200
C 0.14900 -5.71500 -0.62300
C 0.09600 -4.62900 2.71600
O 0.20800 -5.74700 3.22100
C -0.25500 -3.42800 3.70100
C 0.71700 -3.48200 4.84800
O 1.93100 -3.25500 4.66900
O 0.03800 -3.55600 6.00300
C 0.94300 -3.58300 7.18300
H -1.85900 3.22000 2.49700
H -0.21800 2.45300 -3.47400
H 0.27600 -3.74700 -2.60500
H -1.55400 -0.94900 5.13200
H -1.58500 1.83100 4.66500
H -3.48400 -0.37700 3.96900
H -3.51100 1.02700 2.85800
H -3.85200 1.30100 4.54300
H 0.66900 1.09600 4.96600
H 1.13000 -0.63900 5.18900
H -0.84400 0.02600 7.12500
H 0.06200 1.47700 6.92100
H -1.34400 5.18600 1.93800
H -1.65100 5.96300 0.43200
H 0.00700 6.02000 1.08400
H -0.63500 6.74400 -1.40500
H 0.66500 6.97000 -2.70400
H 1.04800 6.46600 -1.03600
H 0.60800 0.50100 -4.89100
H -0.69200 -2.15600 -4.54700
H -1.26700 0.74000 -6.12900
H -2.20400 0.71400 -4.59600
H -1.96700 -0.72000 -5.45300
H 1.35600 -1.75900 -5.96700
H 1.45200 -3.15700 -4.90200
H 2.71400 -0.52200 -4.79800
H 3.48700 -2.12100 -4.52900
H 2.49500 -1.30300 -3.24000
H 0.86700 -6.33300 -0.08400
H 0.40400 -5.64200 -1.68000
H -0.89100 -5.99900 -0.46300
H -1.28300 -3.58100 4.02800
H 0.69800 -4.47800 7.75500
H 0.83300 -2.61900 7.68000
H 2.00000 -3.75400 6.97600
Mg 15.77265 1.42346 1.20510
C 15.60496 -1.13677 3.71431
C 14.51864 3.57837 3.53285
C 15.48388 3.58670 -1.09804
C 15.91315 -1.11545 -1.17815
N 15.17888 1.13906 3.31669
C 15.21743 0.13646 4.18136
C 14.89532 0.53747 5.64594
C 14.03381 1.85984 5.34926
C 14.63316 2.24397 3.99800
C 12.55274 1.58179 5.15315
C 16.18715 0.86715 6.47330
C 15.97468 0.96520 7.98558
H 17.03868 0.49754 8.86970
N 15.57074 3.39481 1.31275
C 15.06328 4.10585 2.34144
C 15.11409 5.51456 1.92060
C 15.53996 5.56331 0.49548
C 15.52769 4.15163 0.16825
C 14.85362 6.65481 2.86156
C 15.88689 6.69430 -0.42469
O 15.99936 6.52272 -1.68990
C 15.99920 8.02641 0.18717
N 15.49440 1.26714 -0.84928
C 15.45506 2.36330 -1.62698
C 15.52434 1.99673 -3.09027
C 15.86348 0.43427 -3.12616
C 15.84259 0.13591 -1.61093
C 14.25703 2.26096 -3.90298
C 17.10955 0.00325 -3.94726
C 18.36717 0.51967 -3.28614
N 15.94868 -0.72972 1.23484
C 15.96281 -1.59983 0.12273
C 15.98236 -2.97976 0.64982
C 15.95477 -2.81582 2.04296
C 15.90006 -1.43194 2.36133
C 15.97249 -4.16914 -0.13210
C 15.94876 -3.49909 3.31647
O 16.06921 -4.66995 3.67466
C 15.59431 -2.44618 4.45319
C 16.57940 -2.62526 5.57571
O 17.78550 -2.37530 5.40409
O 15.90778 -2.85114 6.71951
C 16.84153 -3.02429 7.86405
H 13.91944 4.28050 4.11324
H 15.49550 4.29401 -1.93054
H 16.05631 -1.96015 -1.85539
H 14.29679 -0.18136 6.19258
H 14.23042 2.63317 6.08727
H 12.34138 0.52308 5.12851
H 12.28936 2.04223 4.20993
H 11.96720 2.10219 5.91647
H 16.49566 1.89861 6.25964
H 16.96530 0.15946 6.26285
H 15.00801 0.54872 8.29387
H 15.91113 2.02115 8.25933
H 14.40273 6.30748 3.79936
H 14.07874 7.27795 2.40207
H 15.74088 7.26672 3.03763
H 15.05858 8.28314 0.66861
H 16.34056 8.68722 -0.61200
H 16.75658 7.98546 0.97793
H 16.31815 2.54015 -3.58791
H 15.04560 -0.15004 -3.57281
H 14.42677 2.92228 -4.77356
H 13.51081 2.68416 -3.24374
H 13.75530 1.37079 -4.27859
H 17.07818 0.44821 -4.94485
H 17.19151 -1.07083 -4.07615
H 18.43492 1.54790 -3.65389
H 19.23033 -0.06719 -3.59371
H 18.24881 0.56613 -2.19734
H 16.69509 -4.84025 0.31283
H 16.20956 -3.96222 -1.17361
H 14.93236 -4.47963 -0.00173
H 14.56985 -2.64128 4.77253
H 16.60775 -3.98947 8.32390
H 16.71417 -2.12287 8.49251
H 17.89423 -3.14723 7.63788

