%nproc=24
%mem=175gb
#p cam-b3lyp/Def2SVP td=(nstates=5)

TDDFT excited states in gaussian

0 1
Mg 0.00000 0.00000 0.00000
C -0.21700 -2.21800 2.80100
C -1.25500 2.44200 2.02600
C -0.24500 1.85000 -2.56400
C 0.14600 -2.82400 -2.03700
N -0.61700 -0.00900 2.12600
C -0.59400 -0.90800 3.10500
C -0.93600 -0.30900 4.50200
C -1.77300 0.96400 4.03200
C -1.15500 1.16800 2.66000
C -3.26300 0.68500 3.86300
C 0.34500 0.11000 5.29900
C 0.12400 0.39700 6.78700
H 1.16800 0.03300 7.73300
N -0.18500 1.96100 -0.15200
C -0.70300 2.80000 0.77700
C -0.62000 4.15600 0.19300
C -0.18700 4.01500 -1.22500
C -0.21400 2.58300 -1.38000
C -0.88700 5.40600 0.97400
C 0.18100 5.01300 -2.27700
O 0.30300 4.69000 -3.50800
C 0.31000 6.41400 -1.83700
N -0.26500 -0.41300 -2.02900
C -0.27900 0.56900 -2.93700
C -0.19600 0.02400 -4.33200
C 0.12400 -1.53300 -4.18000
C 0.08600 -1.63200 -2.63500
C -1.45100 0.20500 -5.19700
C 1.37300 -2.07000 -4.92300
C 2.62600 -1.49000 -4.30600
N 0.15000 -2.14400 0.30300
C 0.17300 -3.13600 -0.68800
C 0.17300 -4.43800 0.00400
C 0.13300 -4.11100 1.35800
C 0.08300 -2.69500 1.50200
C 0.14900 -5.71500 -0.62300
C 0.09600 -4.62900 2.71600
O 0.20800 -5.74700 3.22100
C -0.25500 -3.42800 3.70100
C 0.71700 -3.48200 4.84800
O 1.93100 -3.25500 4.66900
O 0.03800 -3.55600 6.00300
C 0.94300 -3.58300 7.18300
H -1.85900 3.22000 2.49700
H -0.21800 2.45300 -3.47400
H 0.27600 -3.74700 -2.60500
H -1.55400 -0.94900 5.13200
H -1.58500 1.83100 4.66500
H -3.48400 -0.37700 3.96900
H -3.51100 1.02700 2.85800
H -3.85200 1.30100 4.54300
H 0.66900 1.09600 4.96600
H 1.13000 -0.63900 5.18900
H -0.84400 0.02600 7.12500
H 0.06200 1.47700 6.92100
H -1.34400 5.18600 1.93800
H -1.65100 5.96300 0.43200
H 0.00700 6.02000 1.08400
H -0.63500 6.74400 -1.40500
H 0.66500 6.97000 -2.70400
H 1.04800 6.46600 -1.03600
H 0.60800 0.50100 -4.89100
H -0.69200 -2.15600 -4.54700
H -1.26700 0.74000 -6.12900
H -2.20400 0.71400 -4.59600
H -1.96700 -0.72000 -5.45300
H 1.35600 -1.75900 -5.96700
H 1.45200 -3.15700 -4.90200
H 2.71400 -0.52200 -4.79800
H 3.48700 -2.12100 -4.52900
H 2.49500 -1.30300 -3.24000
H 0.86700 -6.33300 -0.08400
H 0.40400 -5.64200 -1.68000
H -0.89100 -5.99900 -0.46300
H -1.28300 -3.58100 4.02800
H 0.69800 -4.47800 7.75500
H 0.83300 -2.61900 7.68000
H 2.00000 -3.75400 6.97600
Mg 10.50351 0.94246 0.80507
C 10.21058 3.66292 3.12721
C 11.43578 -1.01103 3.44124
C 11.20459 -1.35209 -1.27121
C 10.66929 3.31626 -1.74116
N 10.75324 1.38346 2.95807
C 10.55400 2.43740 3.73515
C 10.65438 2.14335 5.25601
C 11.58615 0.83721 5.18741
C 11.21505 0.34537 3.78989
C 13.07183 1.15634 5.20257
C 9.25855 1.82022 5.89573
C 9.23525 1.82732 7.42582
H 8.03451 2.31136 8.10140
N 10.73805 -1.00916 1.07848
C 11.09756 -1.63356 2.21960
C 11.15010 -3.06730 1.89433
C 10.95296 -3.22305 0.42750
C 10.97888 -1.83579 0.00927
C 11.29070 -4.13444 2.94069
C 10.78360 -4.42276 -0.45466
O 10.86520 -4.33701 -1.73091
C 10.61246 -5.71607 0.22325
N 11.09431 0.97669 -1.18795
C 11.28324 -0.16494 -1.87271
C 11.43321 0.10415 -3.35105
C 11.06275 1.64756 -3.54656
C 10.83938 2.04314 -2.07041
C 12.81821 -0.16496 -3.93905
C 9.94895 1.97889 -4.57725
C 8.61771 1.46011 -4.08322
N 10.26832 3.08518 0.65851
C 10.40474 3.88099 -0.50000
C 10.26693 5.29027 -0.07884
C 10.08138 5.21723 1.30995
C 10.12226 3.85958 1.72782
C 10.36719 6.42656 -0.93025
C 9.87084 5.98060 2.51893
O 9.66523 7.16682 2.77256
C 10.07143 5.01657 3.76666
C 8.91907 5.23103 4.70931
O 7.76147 4.92640 4.37202
O 9.39804 5.55439 5.92438
C 8.29310 5.76623 6.89703
H 11.95550 -1.65196 4.15397
H 11.34149 -2.11133 -2.04470
H 10.61120 4.10991 -2.48910
H 11.14125 2.91730 5.83716
H 11.29738 0.10615 5.93809
H 13.25648 2.21833 5.13759
H 13.49104 0.64629 4.34515
H 13.54478 0.70788 6.08094
H 9.01439 0.76653 5.70900
H 8.50432 2.48386 5.51976
H 10.13074 2.29798 7.84951
H 9.28317 0.79417 7.77840
H 11.58062 -3.71129 3.91037
H 12.14387 -4.75690 2.64996
H 10.40328 -4.76598 3.02013
H 11.47299 -5.90663 0.86014
H 10.41735 -6.43892 -0.57129
H 9.74028 -5.65230 0.88344
H 10.74125 -0.49891 -3.92605
H 11.92456 2.23165 -3.90147
H 12.80371 -0.88661 -4.77756
H 13.46346 -0.51727 -3.14528
H 13.34871 0.71709 -4.29369
H 10.14712 1.47226 -5.52499
H 9.85980 3.03875 -4.79113
H 8.63523 0.40860 -4.38506
H 7.79788 1.99390 -4.55964
H 8.56613 1.48803 -2.98859
H 9.56665 7.09783 -0.64916
H 10.30087 6.14463 -1.97901
H 11.36575 6.78279 -0.66332
H 11.02811 5.26928 4.22543
H 8.42684 6.76688 7.31953
H 8.34466 4.91230 7.59839
H 7.28564 5.83562 6.50377

