%nproc=24
%mem=175gb
#p cam-b3lyp/Def2SVP td=(nstates=5)

TDDFT excited states in gaussian

0 1
Mg 10.51832 0.94043 0.80320
C 10.73261 -1.84893 -1.44460
C 9.65006 -1.28200 3.24072
C 9.88358 3.41055 2.69081
C 10.27646 3.00062 -1.99731
N 10.25895 -1.25601 0.77871
C 10.42748 -2.21659 -0.11752
C 10.33860 -3.65565 0.45760
C 9.44670 -3.34125 1.75550
C 9.83019 -1.87807 1.96700
C 7.95206 -3.40964 1.48960
C 11.74465 -4.22957 0.85213
C 11.77029 -5.73428 1.12949
H 12.95694 -6.49299 0.74390
N 10.34345 1.03626 2.77774
C 10.00492 0.03285 3.61431
C 9.99528 0.61967 4.96328
C 10.19459 2.08905 4.83705
C 10.12598 2.24167 3.39757
C 9.88882 -0.20904 6.21041
C 10.39873 3.17854 5.84577
O 10.31244 4.41681 5.52625
C 10.61010 2.75270 7.23698
N 9.92342 2.89455 0.41606
C 9.76800 3.78072 1.41529
C 9.60747 5.18365 0.88015
C 9.93069 5.08678 -0.68310
C 10.14445 3.56191 -0.80329
C 8.23027 5.81702 1.07652
C 11.03222 6.03327 -1.23397
C 12.37939 5.63919 -0.67251
N 10.68827 0.68439 -1.33540
C 10.52586 1.67494 -2.32864
C 10.62163 0.99811 -3.63828
C 10.81164 -0.35350 -3.31341
C 10.81259 -0.51102 -1.90108
C 10.48558 1.62338 -4.90975
C 11.00098 -1.68434 -3.84417
O 11.17100 -2.15530 -4.96801
C 10.83177 -2.72986 -2.65899
C 11.97869 -3.70056 -2.72863
O 13.14442 -3.31706 -2.52712
O 11.49218 -4.95267 -2.80542
C 12.59182 -5.95217 -2.86549
H 9.15117 -1.86080 4.01853
H 9.76843 4.31246 3.29643
H 10.30924 3.58741 -2.91779
H 9.82948 -4.36883 -0.17954
H 9.75873 -3.94378 2.60459
H 7.73523 -3.54287 0.44013
H 7.54706 -2.47056 1.84336
H 7.49439 -4.18722 2.10785
H 12.02029 -3.85082 1.84476
H 12.47780 -3.98681 0.10769
H 10.86166 -6.23465 0.77315
H 11.75427 -5.88807 2.21121
H 9.58784 -1.23940 5.98422
H 9.05441 0.19595 6.79317
H 10.79509 -0.17301 6.81871
H 9.75680 2.16590 7.56864
H 10.82568 3.66719 7.79297
H 11.48105 2.08871 7.27113
H 10.31642 5.85814 1.34444
H 9.05100 5.33013 -1.29690
H 8.26522 6.77520 1.62856
H 7.59732 5.10534 1.58977
H 7.67272 6.00328 0.16021
H 10.84790 7.05957 -0.90705
H 11.08888 6.04564 -2.31731
H 12.39322 6.13167 0.30441
H 13.18188 6.00457 -1.31011
H 12.43193 4.55832 -0.49755
H 11.26590 1.21898 -5.54067
H 10.55866 2.70602 -4.83026
H 9.47714 1.29876 -5.17983
H 9.86865 -3.22385 -2.79293
H 12.42855 -6.55312 -3.76542
H 12.56732 -6.48199 -1.89469
H 13.59606 -5.58275 -3.03718

