%nproc=24
%mem=175gb
#p cam-b3lyp/Def2SVP td=(nstates=5)

TDDFT excited states in gaussian

0 1
Mg 15.77368 1.42146 1.20497
C 14.63308 -0.63047 3.91933
C 15.42034 4.10439 3.28141
C 16.34017 3.30007 -1.28848
C 14.95140 -1.19995 -0.93927
N 15.10553 1.58782 3.30692
C 14.75588 0.73352 4.25679
C 14.60274 1.36598 5.66609
C 14.30969 2.88042 5.21947
C 15.01696 2.87725 3.86580
C 12.83505 3.16474 4.98723
C 15.91869 1.26166 6.51427
C 15.75163 1.57832 8.00208
H 16.55365 0.83126 8.96703
N 16.33523 3.32351 1.13138
C 16.13064 4.26934 2.07203
C 16.71495 5.50676 1.53210
C 17.13473 5.25312 0.12705
C 16.58879 3.92612 -0.07571
C 16.90233 6.74609 2.35815
C 17.89002 6.07471 -0.87332
O 17.93538 5.75198 -2.11292
C 18.49680 7.31815 -0.37616
N 15.46746 1.18408 -0.83763
C 15.85148 2.13323 -1.70916
C 15.78383 1.62810 -3.13066
C 15.50418 0.05770 -3.01571
C 15.36372 -0.06276 -1.48236
C 14.71609 2.27150 -4.01517
C 16.49731 -0.88914 -3.74363
C 17.85341 -0.82463 -3.07865
N 15.11840 -0.62500 1.43014
C 14.80665 -1.53907 0.39992
C 14.29781 -2.76630 1.04601
C 14.32741 -2.47030 2.41714
C 14.80088 -1.14446 2.61074
C 13.84088 -3.93342 0.37135
C 14.05575 -2.97419 3.74416
O 13.72054 -4.06330 4.20805
C 14.12201 -1.76088 4.76880
C 14.95944 -2.18934 5.94253
O 16.17095 -2.43122 5.79984
O 14.24650 -2.03319 7.07288
C 15.03857 -2.43469 8.26588
H 15.12981 5.03335 3.77286
H 16.62389 3.86660 -2.17844
H 14.76643 -2.09734 -1.53354
H 13.77320 0.98286 6.24822
H 14.78153 3.58964 5.89455
H 12.23748 2.26722 5.04651
H 12.77118 3.59708 3.99725
H 12.48718 3.93886 5.67719
H 16.59700 2.07437 6.22421
H 16.37074 0.29575 6.39894
H 14.69764 1.58963 8.30528
H 16.09257 2.60119 8.17958
H 16.34849 6.68713 3.30323
H 16.42463 7.56817 1.81422
H 17.95461 6.99153 2.51665
H 17.72176 7.95631 0.04160
H 19.06771 7.72055 -1.21521
H 19.17778 7.07082 0.44586
H 16.72712 1.78066 -3.64059
H 14.52795 -0.21468 -3.44305
H 15.12881 2.73229 -4.93246
H 14.18321 3.00673 -3.42695
H 13.91576 1.60493 -4.33197
H 16.64245 -0.56393 -4.77674
H 16.16576 -1.92167 -3.77459
H 18.30857 0.06114 -3.53178
H 18.43049 -1.72076 -3.29769
H 17.75598 -0.63194 -2.00392
H 14.25208 -4.78133 0.90282
H 14.14413 -3.93303 -0.67355
H 12.76012 -3.81394 0.48515
H 13.09861 -1.52279 5.06125
H 14.45330 -3.19079 8.79828
H 15.25997 -1.49575 8.80730
H 15.96680 -2.96730 8.09515

