%nproc=24
%mem=175gb
#p cam-b3lyp/Def2SVP td=(nstates=5)

TDDFT excited states in gaussian

0 1
Mg 0.00000 0.00000 0.00000
C -0.21700 -2.21800 2.80100
C -1.25500 2.44200 2.02600
C -0.24500 1.85000 -2.56400
C 0.14600 -2.82400 -2.03700
N -0.61700 -0.00900 2.12600
C -0.59400 -0.90800 3.10500
C -0.93600 -0.30900 4.50200
C -1.77300 0.96400 4.03200
C -1.15500 1.16800 2.66000
C -3.26300 0.68500 3.86300
C 0.34500 0.11000 5.29900
C 0.12400 0.39700 6.78700
H 1.16800 0.03300 7.73300
N -0.18500 1.96100 -0.15200
C -0.70300 2.80000 0.77700
C -0.62000 4.15600 0.19300
C -0.18700 4.01500 -1.22500
C -0.21400 2.58300 -1.38000
C -0.88700 5.40600 0.97400
C 0.18100 5.01300 -2.27700
O 0.30300 4.69000 -3.50800
C 0.31000 6.41400 -1.83700
N -0.26500 -0.41300 -2.02900
C -0.27900 0.56900 -2.93700
C -0.19600 0.02400 -4.33200
C 0.12400 -1.53300 -4.18000
C 0.08600 -1.63200 -2.63500
C -1.45100 0.20500 -5.19700
C 1.37300 -2.07000 -4.92300
C 2.62600 -1.49000 -4.30600
N 0.15000 -2.14400 0.30300
C 0.17300 -3.13600 -0.68800
C 0.17300 -4.43800 0.00400
C 0.13300 -4.11100 1.35800
C 0.08300 -2.69500 1.50200
C 0.14900 -5.71500 -0.62300
C 0.09600 -4.62900 2.71600
O 0.20800 -5.74700 3.22100
C -0.25500 -3.42800 3.70100
C 0.71700 -3.48200 4.84800
O 1.93100 -3.25500 4.66900
O 0.03800 -3.55600 6.00300
C 0.94300 -3.58300 7.18300
H -1.85900 3.22000 2.49700
H -0.21800 2.45300 -3.47400
H 0.27600 -3.74700 -2.60500
H -1.55400 -0.94900 5.13200
H -1.58500 1.83100 4.66500
H -3.48400 -0.37700 3.96900
H -3.51100 1.02700 2.85800
H -3.85200 1.30100 4.54300
H 0.66900 1.09600 4.96600
H 1.13000 -0.63900 5.18900
H -0.84400 0.02600 7.12500
H 0.06200 1.47700 6.92100
H -1.34400 5.18600 1.93800
H -1.65100 5.96300 0.43200
H 0.00700 6.02000 1.08400
H -0.63500 6.74400 -1.40500
H 0.66500 6.97000 -2.70400
H 1.04800 6.46600 -1.03600
H 0.60800 0.50100 -4.89100
H -0.69200 -2.15600 -4.54700
H -1.26700 0.74000 -6.12900
H -2.20400 0.71400 -4.59600
H -1.96700 -0.72000 -5.45300
H 1.35600 -1.75900 -5.96700
H 1.45200 -3.15700 -4.90200
H 2.71400 -0.52200 -4.79800
H 3.48700 -2.12100 -4.52900
H 2.49500 -1.30300 -3.24000
H 0.86700 -6.33300 -0.08400
H 0.40400 -5.64200 -1.68000
H -0.89100 -5.99900 -0.46300
H -1.28300 -3.58100 4.02800
H 0.69800 -4.47800 7.75500
H 0.83300 -2.61900 7.68000
H 2.00000 -3.75400 6.97600
Mg 15.75828 1.42164 1.19108
C 15.97574 -1.33076 -1.10153
C 16.27085 3.48793 -1.47394
C 16.02136 3.83225 3.23734
C 16.40343 -0.84578 3.75784
N 16.06880 1.01241 -0.96028
C 16.07004 -0.06907 -1.72497
C 16.09768 0.22127 -3.24960
C 16.75981 1.68358 -3.20395
C 16.31344 2.11052 -1.80712
C 18.27897 1.65752 -3.23277
C 14.65988 0.26107 -3.87664
C 14.62434 0.23193 -5.40623
H 13.53375 -0.48285 -6.06362
N 15.60840 3.37850 0.89643
C 15.82985 4.04740 -0.25457
C 15.60708 5.46791 0.05638
C 15.39702 5.59954 1.52378
C 15.69461 4.24838 1.95491
C 15.52901 6.52996 -1.00164
C 15.00693 6.75399 2.39629
O 15.11530 6.70036 3.67230
C 14.58265 7.98190 1.70803
N 16.36282 1.52527 3.17757
C 16.33366 2.68972 3.84923
C 16.54642 2.47178 5.32829
C 16.48329 0.88823 5.54268
C 16.32709 0.43992 4.07298
C 17.85856 3.01031 5.89808
C 15.46411 0.35977 6.58895
C 14.05320 0.60568 6.10499
N 15.94331 -0.72429 1.36074
C 16.24172 -1.46530 2.52519
C 16.37523 -2.87939 2.11907
C 16.16630 -2.85964 0.73183
C 15.93998 -1.52461 0.30057
C 16.70119 -3.96497 2.98012
C 16.09629 -3.66321 -0.46737
O 16.12167 -4.86965 -0.70733
C 16.09516 -2.69306 -1.72642
C 14.99743 -3.13710 -2.65396
O 13.80591 -3.05812 -2.30659
O 15.51872 -3.37578 -3.87119
C 14.46673 -3.80843 -4.82929
H 16.65023 4.20897 -2.19855
H 16.01593 4.61251 4.00196
H 16.50682 -1.62701 4.51393
H 16.71969 -0.45062 -3.82877
H 16.32822 2.33632 -3.95829
H 18.66612 0.65207 -3.15974
H 18.59946 2.24885 -2.38504
H 18.64815 2.17877 -4.12065
H 14.21826 1.24977 -3.69725
H 14.05174 -0.53146 -3.48590
H 15.59003 -0.06160 -5.83546
H 14.46829 1.25072 -5.76918
H 15.88637 6.15966 -1.97044
H 16.24831 7.30891 -0.72648
H 14.53550 6.97707 -1.07713
H 15.38419 8.32785 1.05971
H 14.25873 8.66253 2.49777
H 13.73325 7.74313 1.05833
H 15.75620 2.93630 5.90524
H 17.44502 0.48588 5.89344
H 17.71246 3.72517 6.72977
H 18.41616 3.47151 5.09378
H 18.55287 2.25160 6.25514
H 15.56925 0.90605 7.52952
H 15.58361 -0.69479 6.81393
H 13.86978 1.64416 6.39656
H 13.35649 -0.07098 6.59567
H 13.99793 0.55569 5.01133
H 16.04304 -4.78153 2.71447
H 16.59122 -3.68909 4.02682
H 17.74729 -4.12450 2.70539
H 17.07840 -2.76135 -2.19348
H 14.78760 -4.76916 -5.24370
H 14.34571 -2.96880 -5.53931
H 13.49536 -4.06672 -4.42409

