%nproc=24
%mem=175gb
#p cam-b3lyp/Def2SVP td=(nstates=5)

TDDFT excited states in gaussian

0 1
Mg 0.00000 0.00000 0.00000
C -0.21700 -2.21800 2.80100
C -1.25500 2.44200 2.02600
C -0.24500 1.85000 -2.56400
C 0.14600 -2.82400 -2.03700
N -0.61700 -0.00900 2.12600
C -0.59400 -0.90800 3.10500
C -0.93600 -0.30900 4.50200
C -1.77300 0.96400 4.03200
C -1.15500 1.16800 2.66000
C -3.26300 0.68500 3.86300
C 0.34500 0.11000 5.29900
C 0.12400 0.39700 6.78700
H 1.16800 0.03300 7.73300
N -0.18500 1.96100 -0.15200
C -0.70300 2.80000 0.77700
C -0.62000 4.15600 0.19300
C -0.18700 4.01500 -1.22500
C -0.21400 2.58300 -1.38000
C -0.88700 5.40600 0.97400
C 0.18100 5.01300 -2.27700
O 0.30300 4.69000 -3.50800
C 0.31000 6.41400 -1.83700
N -0.26500 -0.41300 -2.02900
C -0.27900 0.56900 -2.93700
C -0.19600 0.02400 -4.33200
C 0.12400 -1.53300 -4.18000
C 0.08600 -1.63200 -2.63500
C -1.45100 0.20500 -5.19700
C 1.37300 -2.07000 -4.92300
C 2.62600 -1.49000 -4.30600
N 0.15000 -2.14400 0.30300
C 0.17300 -3.13600 -0.68800
C 0.17300 -4.43800 0.00400
C 0.13300 -4.11100 1.35800
C 0.08300 -2.69500 1.50200
C 0.14900 -5.71500 -0.62300
C 0.09600 -4.62900 2.71600
O 0.20800 -5.74700 3.22100
C -0.25500 -3.42800 3.70100
C 0.71700 -3.48200 4.84800
O 1.93100 -3.25500 4.66900
O 0.03800 -3.55600 6.00300
C 0.94300 -3.58300 7.18300
H -1.85900 3.22000 2.49700
H -0.21800 2.45300 -3.47400
H 0.27600 -3.74700 -2.60500
H -1.55400 -0.94900 5.13200
H -1.58500 1.83100 4.66500
H -3.48400 -0.37700 3.96900
H -3.51100 1.02700 2.85800
H -3.85200 1.30100 4.54300
H 0.66900 1.09600 4.96600
H 1.13000 -0.63900 5.18900
H -0.84400 0.02600 7.12500
H 0.06200 1.47700 6.92100
H -1.34400 5.18600 1.93800
H -1.65100 5.96300 0.43200
H 0.00700 6.02000 1.08400
H -0.63500 6.74400 -1.40500
H 0.66500 6.97000 -2.70400
H 1.04800 6.46600 -1.03600
H 0.60800 0.50100 -4.89100
H -0.69200 -2.15600 -4.54700
H -1.26700 0.74000 -6.12900
H -2.20400 0.71400 -4.59600
H -1.96700 -0.72000 -5.45300
H 1.35600 -1.75900 -5.96700
H 1.45200 -3.15700 -4.90200
H 2.71400 -0.52200 -4.79800
H 3.48700 -2.12100 -4.52900
H 2.49500 -1.30300 -3.24000
H 0.86700 -6.33300 -0.08400
H 0.40400 -5.64200 -1.68000
H -0.89100 -5.99900 -0.46300
H -1.28300 -3.58100 4.02800
H 0.69800 -4.47800 7.75500
H 0.83300 -2.61900 7.68000
H 2.00000 -3.75400 6.97600
Mg 13.14558 1.18954 0.99380
C 12.52462 4.14322 2.93524
C 12.30833 3.00908 -1.76716
C 13.24640 -1.49980 -0.68690
C 12.81810 -0.64636 3.93793
N 12.51600 3.29517 0.74440
C 12.37500 4.33969 1.54655
C 12.13475 5.68634 0.81282
C 11.52575 5.10889 -0.55632
C 12.18094 3.72926 -0.55257
C 10.01828 4.92185 -0.51278
C 13.46717 6.47579 0.56092
C 13.28010 7.93196 0.12927
H 14.24443 8.92512 0.59422
N 13.30377 0.90361 -0.96370
C 12.93609 1.75635 -1.94295
C 13.23962 1.07057 -3.20855
C 13.66337 -0.32175 -2.89773
C 13.39512 -0.36738 -1.47433
C 13.19223 1.76173 -4.54027
C 14.20655 -1.43295 -3.74413
O 14.28265 -2.63589 -3.30829
C 14.55957 -1.08947 -5.12937
N 12.83800 -0.80289 1.50168
C 12.99537 -1.78045 0.59198
C 12.99320 -3.14093 1.24732
C 13.04412 -2.85992 2.82086
C 12.97379 -1.31714 2.80481
C 11.79232 -4.03112 0.92818
C 14.18944 -3.53935 3.62040
C 15.52153 -2.95043 3.21531
N 12.92945 1.64477 3.09477
C 12.78295 0.72497 4.15618
C 12.55410 1.51160 5.38551
C 12.56045 2.84426 4.94680
C 12.75776 2.88442 3.54005
C 12.32717 0.97697 6.68504
C 12.43449 4.22572 5.35228
O 12.34222 4.80934 6.43145
C 12.27941 5.12270 4.04930
C 13.21897 6.29060 4.17485
O 14.44990 6.11356 4.18229
O 12.52073 7.43359 4.04677
C 13.41092 8.62021 4.15313
H 11.84757 3.42109 -2.66539
H 13.38343 -2.45349 -1.20185
H 12.80430 -1.14058 4.91170
H 11.41761 6.34263 1.29112
H 11.86098 5.68787 -1.41292
H 9.61889 5.09732 0.47507
H 9.83990 3.89870 -0.81674
H 9.53859 5.54908 -1.26962
H 13.95652 6.07527 -0.33622
H 14.10394 6.43342 1.42309
H 12.25491 8.28340 0.29785
H 13.40929 7.99209 -0.95411
H 12.68855 2.73382 -4.47125
H 12.54154 1.16404 -5.18775
H 14.17599 1.84429 -5.00723
H 13.68221 -0.69884 -5.63937
H 15.01259 -1.99048 -5.54748
H 15.29924 -0.28127 -5.11178
H 13.87082 -3.70848 0.96312
H 12.13283 -3.21079 3.32712
H 12.07645 -5.00792 0.49320
H 11.13676 -3.49226 0.25707
H 11.13687 -4.24219 1.77141
H 14.23630 -4.60508 3.38338
H 14.07548 -3.45334 4.69586
H 15.77307 -3.50935 2.30898
H 16.26349 -3.10877 3.99536
H 15.41652 -1.89617 2.93396
H 12.91773 1.56802 7.37235
H 12.59488 -0.07646 6.73389
H 11.24840 1.13088 6.77362
H 11.23744 5.43985 3.99201
H 13.00773 9.25159 4.95093
H 13.45040 9.05608 3.13715
H 14.42341 8.45740 4.50355

