%nproc=24
%mem=175gb
#p cam-b3lyp/Def2SVP td=(nstates=5)

TDDFT excited states in gaussian

0 1
Mg 0.00000 0.00000 0.00000
C -0.21700 -2.21800 2.80100
C -1.25500 2.44200 2.02600
C -0.24500 1.85000 -2.56400
C 0.14600 -2.82400 -2.03700
N -0.61700 -0.00900 2.12600
C -0.59400 -0.90800 3.10500
C -0.93600 -0.30900 4.50200
C -1.77300 0.96400 4.03200
C -1.15500 1.16800 2.66000
C -3.26300 0.68500 3.86300
C 0.34500 0.11000 5.29900
C 0.12400 0.39700 6.78700
H 1.16800 0.03300 7.73300
N -0.18500 1.96100 -0.15200
C -0.70300 2.80000 0.77700
C -0.62000 4.15600 0.19300
C -0.18700 4.01500 -1.22500
C -0.21400 2.58300 -1.38000
C -0.88700 5.40600 0.97400
C 0.18100 5.01300 -2.27700
O 0.30300 4.69000 -3.50800
C 0.31000 6.41400 -1.83700
N -0.26500 -0.41300 -2.02900
C -0.27900 0.56900 -2.93700
C -0.19600 0.02400 -4.33200
C 0.12400 -1.53300 -4.18000
C 0.08600 -1.63200 -2.63500
C -1.45100 0.20500 -5.19700
C 1.37300 -2.07000 -4.92300
C 2.62600 -1.49000 -4.30600
N 0.15000 -2.14400 0.30300
C 0.17300 -3.13600 -0.68800
C 0.17300 -4.43800 0.00400
C 0.13300 -4.11100 1.35800
C 0.08300 -2.69500 1.50200
C 0.14900 -5.71500 -0.62300
C 0.09600 -4.62900 2.71600
O 0.20800 -5.74700 3.22100
C -0.25500 -3.42800 3.70100
C 0.71700 -3.48200 4.84800
O 1.93100 -3.25500 4.66900
O 0.03800 -3.55600 6.00300
C 0.94300 -3.58300 7.18300
H -1.85900 3.22000 2.49700
H -0.21800 2.45300 -3.47400
H 0.27600 -3.74700 -2.60500
H -1.55400 -0.94900 5.13200
H -1.58500 1.83100 4.66500
H -3.48400 -0.37700 3.96900
H -3.51100 1.02700 2.85800
H -3.85200 1.30100 4.54300
H 0.66900 1.09600 4.96600
H 1.13000 -0.63900 5.18900
H -0.84400 0.02600 7.12500
H 0.06200 1.47700 6.92100
H -1.34400 5.18600 1.93800
H -1.65100 5.96300 0.43200
H 0.00700 6.02000 1.08400
H -0.63500 6.74400 -1.40500
H 0.66500 6.97000 -2.70400
H 1.04800 6.46600 -1.03600
H 0.60800 0.50100 -4.89100
H -0.69200 -2.15600 -4.54700
H -1.26700 0.74000 -6.12900
H -2.20400 0.71400 -4.59600
H -1.96700 -0.72000 -5.45300
H 1.35600 -1.75900 -5.96700
H 1.45200 -3.15700 -4.90200
H 2.71400 -0.52200 -4.79800
H 3.48700 -2.12100 -4.52900
H 2.49500 -1.30300 -3.24000
H 0.86700 -6.33300 -0.08400
H 0.40400 -5.64200 -1.68000
H -0.89100 -5.99900 -0.46300
H -1.28300 -3.58100 4.02800
H 0.69800 -4.47800 7.75500
H 0.83300 -2.61900 7.68000
H 2.00000 -3.75400 6.97600
Mg 13.14541 1.18119 1.00598
C 13.25559 -2.40522 1.07339
C 12.02863 1.05852 4.22659
C 12.60841 4.30360 0.83392
C 13.15890 0.97775 -2.47312
N 12.73571 -0.51397 2.36642
C 12.87296 -1.82983 2.30301
C 12.66171 -2.56440 3.65406
C 11.74261 -1.46764 4.38293
C 12.21777 -0.21933 3.64226
C 10.25864 -1.64890 4.11035
C 14.00775 -2.79161 4.42774
C 13.91800 -3.77031 5.60070
H 15.06370 -4.63259 5.87695
N 12.89887 2.52323 2.44706
C 12.45851 2.29745 3.70260
C 12.43567 3.61163 4.36335
C 12.74117 4.65367 3.34574
C 12.74083 3.85158 2.13879
C 12.22233 3.77630 5.84010
C 12.97983 6.13019 3.44134
O 12.99234 6.87898 2.40115
C 13.10545 6.68763 4.79595
N 12.70324 2.45052 -0.58010
C 12.56979 3.77480 -0.38927
C 12.52833 4.51411 -1.70535
C 12.90624 3.43037 -2.81902
C 13.01849 2.17655 -1.92419
C 11.19157 5.16433 -2.06127
C 14.09181 3.77412 -3.76185
C 15.38494 3.79347 -2.97901
N 13.38250 -0.38874 -0.45934
C 13.32890 -0.25920 -1.86449
C 13.42979 -1.61971 -2.43129
C 13.51259 -2.45500 -1.30704
C 13.44622 -1.67217 -0.12287
C 13.38828 -1.94947 -3.81536
C 13.63035 -3.82188 -0.85265
O 13.81209 -4.90746 -1.40241
C 13.34192 -3.86161 0.70992
C 14.42071 -4.68338 1.36063
O 15.60122 -4.29224 1.35848
O 13.85209 -5.68055 2.06255
C 14.88138 -6.51700 2.73541
H 11.46018 1.12564 5.15462
H 12.53191 5.38695 0.71569
H 13.26898 0.83838 -3.55068
H 12.13028 -3.50569 3.58110
H 11.97799 -1.39561 5.44160
H 10.07519 -2.41680 3.37359
H 9.90585 -0.69014 3.75344
H 9.72387 -1.83767 5.04561
H 14.26910 -1.87317 4.96895
H 14.78510 -3.10191 3.75687
H 12.99185 -4.35740 5.57773
H 13.84817 -3.19572 6.52751
H 11.85998 2.84866 6.30009
H 11.39537 4.48336 5.96683
H 13.10390 4.16813 6.35193
H 12.20099 6.47291 5.36013
H 13.36148 7.73970 4.65643
H 13.92626 6.17545 5.31030
H 13.26318 5.30954 -1.72540
H 12.07074 3.24882 -3.51098
H 11.27073 6.25244 -2.24520
H 10.49085 4.96382 -1.26170
H 10.68530 4.73642 -2.92486
H 13.96611 4.77656 -4.17835
H 14.19241 3.08876 -4.59681
H 15.39381 4.79644 -2.54192
H 16.23564 3.64377 -3.64078
H 15.35546 3.07396 -2.15252
H 14.16329 -2.68541 -3.98346
H 13.53293 -1.06925 -4.43830
H 12.37137 -2.34363 -3.89153
H 12.35301 -4.29996 0.84947
H 14.71295 -7.54987 2.41526
H 14.78148 -6.30192 3.81593
H 15.91485 -6.37103 2.44373

