%nproc=24
%mem=175gb
#p cam-b3lyp/Def2SVP td=(nstates=5)

TDDFT excited states in gaussian

0 1
Mg 0.00000 0.00000 0.00000
C -0.21700 -2.21800 2.80100
C -1.25500 2.44200 2.02600
C -0.24500 1.85000 -2.56400
C 0.14600 -2.82400 -2.03700
N -0.61700 -0.00900 2.12600
C -0.59400 -0.90800 3.10500
C -0.93600 -0.30900 4.50200
C -1.77300 0.96400 4.03200
C -1.15500 1.16800 2.66000
C -3.26300 0.68500 3.86300
C 0.34500 0.11000 5.29900
C 0.12400 0.39700 6.78700
H 1.16800 0.03300 7.73300
N -0.18500 1.96100 -0.15200
C -0.70300 2.80000 0.77700
C -0.62000 4.15600 0.19300
C -0.18700 4.01500 -1.22500
C -0.21400 2.58300 -1.38000
C -0.88700 5.40600 0.97400
C 0.18100 5.01300 -2.27700
O 0.30300 4.69000 -3.50800
C 0.31000 6.41400 -1.83700
N -0.26500 -0.41300 -2.02900
C -0.27900 0.56900 -2.93700
C -0.19600 0.02400 -4.33200
C 0.12400 -1.53300 -4.18000
C 0.08600 -1.63200 -2.63500
C -1.45100 0.20500 -5.19700
C 1.37300 -2.07000 -4.92300
C 2.62600 -1.49000 -4.30600
N 0.15000 -2.14400 0.30300
C 0.17300 -3.13600 -0.68800
C 0.17300 -4.43800 0.00400
C 0.13300 -4.11100 1.35800
C 0.08300 -2.69500 1.50200
C 0.14900 -5.71500 -0.62300
C 0.09600 -4.62900 2.71600
O 0.20800 -5.74700 3.22100
C -0.25500 -3.42800 3.70100
C 0.71700 -3.48200 4.84800
O 1.93100 -3.25500 4.66900
O 0.03800 -3.55600 6.00300
C 0.94300 -3.58300 7.18300
H -1.85900 3.22000 2.49700
H -0.21800 2.45300 -3.47400
H 0.27600 -3.74700 -2.60500
H -1.55400 -0.94900 5.13200
H -1.58500 1.83100 4.66500
H -3.48400 -0.37700 3.96900
H -3.51100 1.02700 2.85800
H -3.85200 1.30100 4.54300
H 0.66900 1.09600 4.96600
H 1.13000 -0.63900 5.18900
H -0.84400 0.02600 7.12500
H 0.06200 1.47700 6.92100
H -1.34400 5.18600 1.93800
H -1.65100 5.96300 0.43200
H 0.00700 6.02000 1.08400
H -0.63500 6.74400 -1.40500
H 0.66500 6.97000 -2.70400
H 1.04800 6.46600 -1.03600
H 0.60800 0.50100 -4.89100
H -0.69200 -2.15600 -4.54700
H -1.26700 0.74000 -6.12900
H -2.20400 0.71400 -4.59600
H -1.96700 -0.72000 -5.45300
H 1.35600 -1.75900 -5.96700
H 1.45200 -3.15700 -4.90200
H 2.71400 -0.52200 -4.79800
H 3.48700 -2.12100 -4.52900
H 2.49500 -1.30300 -3.24000
H 0.86700 -6.33300 -0.08400
H 0.40400 -5.64200 -1.68000
H -0.89100 -5.99900 -0.46300
H -1.28300 -3.58100 4.02800
H 0.69800 -4.47800 7.75500
H 0.83300 -2.61900 7.68000
H 2.00000 -3.75400 6.97600
Mg 10.51274 0.95107 0.80770
C 9.11093 -1.42495 3.10303
C 8.28623 3.22522 2.03467
C 11.41336 2.93084 -1.50246
C 11.79613 -1.74754 -0.98565
N 8.95147 0.80039 2.36718
C 8.55139 -0.13508 3.21522
C 7.55033 0.35981 4.29343
C 6.95635 1.62732 3.50636
C 8.14746 1.93265 2.60044
C 5.76380 1.28585 2.62854
C 8.26681 0.79204 5.62078
C 7.33557 0.99211 6.81849
H 7.82084 0.62596 8.14624
N 10.29660 2.91708 0.64439
C 9.35173 3.68316 1.22886
C 9.61281 5.05861 0.77705
C 10.68746 5.01842 -0.25165
C 10.82944 3.58714 -0.42875
C 8.92874 6.25454 1.37307
C 11.45091 6.09089 -0.96799
O 12.17267 5.83205 -1.99507
C 11.25476 7.46684 -0.48864
N 11.28480 0.63707 -1.09695
C 11.64182 1.67208 -1.87748
C 12.42265 1.20306 -3.08193
C 12.72526 -0.34553 -2.82138
C 11.95659 -0.53392 -1.49509
C 11.72404 1.36472 -4.43182
C 14.21152 -0.79247 -2.88422
C 14.98158 -0.18728 -1.73263
N 10.63735 -1.18711 1.09178
C 11.19352 -2.13449 0.20453
C 10.94130 -3.47118 0.78078
C 10.23008 -3.20782 1.96116
C 10.03405 -1.80716 2.09978
C 11.31143 -4.71372 0.19321
C 9.59131 -3.79688 3.11601
O 9.51159 -4.93399 3.57902
C 8.72828 -2.67702 3.84228
C 9.02899 -2.74092 5.31470
O 10.16397 -2.46338 5.74061
O 7.87855 -2.90596 5.99263
C 8.12379 -2.96410 7.45834
H 7.48301 3.94686 2.18623
H 11.83928 3.57599 -2.27437
H 12.24980 -2.63374 -1.43454
H 6.75531 -0.33739 4.52928
H 6.76759 2.45827 4.18108
H 5.58546 0.22159 2.58735
H 6.00375 1.66761 1.64480
H 4.88093 1.84005 2.95979
H 8.64717 1.81517 5.50556
H 9.04279 0.09771 5.87840
H 6.34017 0.56658 6.64228
H 7.15181 2.06236 6.94022
H 8.07120 5.96097 1.99101
H 8.48605 6.81620 0.54336
H 9.61706 6.90726 1.91423
H 10.20076 7.72579 -0.55563
H 11.95059 8.07922 -1.06543
H 11.52230 7.50891 0.57309
H 13.36213 1.73556 -3.16510
H 12.23112 -0.98798 -3.56496
H 12.30594 1.96663 -5.15512
H 10.75228 1.80906 -4.26220
H 11.46772 0.43323 -4.93365
H 14.67994 -0.42223 -3.79946
H 14.33960 -1.86968 -2.86991
H 15.22872 0.81332 -2.09979
H 15.88022 -0.76533 -1.52689
H 14.34105 -0.06613 -0.85133
H 11.71557 -5.32601 0.98837
H 12.03342 -4.57485 -0.60879
H 10.34074 -5.04896 -0.18181
H 7.67858 -2.88303 3.62951
H 7.68719 -3.90080 7.81842
H 7.70833 -2.02436 7.86826
H 9.14998 -3.06740 7.79109

