%nproc=24
%mem=175gb
#p cam-b3lyp/Def2SVP td=(nstates=5)

TDDFT excited states in gaussian

0 1
Mg 0.00000 0.00000 0.00000
C -0.21700 -2.21800 2.80100
C -1.25500 2.44200 2.02600
C -0.24500 1.85000 -2.56400
C 0.14600 -2.82400 -2.03700
N -0.61700 -0.00900 2.12600
C -0.59400 -0.90800 3.10500
C -0.93600 -0.30900 4.50200
C -1.77300 0.96400 4.03200
C -1.15500 1.16800 2.66000
C -3.26300 0.68500 3.86300
C 0.34500 0.11000 5.29900
C 0.12400 0.39700 6.78700
H 1.16800 0.03300 7.73300
N -0.18500 1.96100 -0.15200
C -0.70300 2.80000 0.77700
C -0.62000 4.15600 0.19300
C -0.18700 4.01500 -1.22500
C -0.21400 2.58300 -1.38000
C -0.88700 5.40600 0.97400
C 0.18100 5.01300 -2.27700
O 0.30300 4.69000 -3.50800
C 0.31000 6.41400 -1.83700
N -0.26500 -0.41300 -2.02900
C -0.27900 0.56900 -2.93700
C -0.19600 0.02400 -4.33200
C 0.12400 -1.53300 -4.18000
C 0.08600 -1.63200 -2.63500
C -1.45100 0.20500 -5.19700
C 1.37300 -2.07000 -4.92300
C 2.62600 -1.49000 -4.30600
N 0.15000 -2.14400 0.30300
C 0.17300 -3.13600 -0.68800
C 0.17300 -4.43800 0.00400
C 0.13300 -4.11100 1.35800
C 0.08300 -2.69500 1.50200
C 0.14900 -5.71500 -0.62300
C 0.09600 -4.62900 2.71600
O 0.20800 -5.74700 3.22100
C -0.25500 -3.42800 3.70100
C 0.71700 -3.48200 4.84800
O 1.93100 -3.25500 4.66900
O 0.03800 -3.55600 6.00300
C 0.94300 -3.58300 7.18300
H -1.85900 3.22000 2.49700
H -0.21800 2.45300 -3.47400
H 0.27600 -3.74700 -2.60500
H -1.55400 -0.94900 5.13200
H -1.58500 1.83100 4.66500
H -3.48400 -0.37700 3.96900
H -3.51100 1.02700 2.85800
H -3.85200 1.30100 4.54300
H 0.66900 1.09600 4.96600
H 1.13000 -0.63900 5.18900
H -0.84400 0.02600 7.12500
H 0.06200 1.47700 6.92100
H -1.34400 5.18600 1.93800
H -1.65100 5.96300 0.43200
H 0.00700 6.02000 1.08400
H -0.63500 6.74400 -1.40500
H 0.66500 6.97000 -2.70400
H 1.04800 6.46600 -1.03600
H 0.60800 0.50100 -4.89100
H -0.69200 -2.15600 -4.54700
H -1.26700 0.74000 -6.12900
H -2.20400 0.71400 -4.59600
H -1.96700 -0.72000 -5.45300
H 1.35600 -1.75900 -5.96700
H 1.45200 -3.15700 -4.90200
H 2.71400 -0.52200 -4.79800
H 3.48700 -2.12100 -4.52900
H 2.49500 -1.30300 -3.24000
H 0.86700 -6.33300 -0.08400
H 0.40400 -5.64200 -1.68000
H -0.89100 -5.99900 -0.46300
H -1.28300 -3.58100 4.02800
H 0.69800 -4.47800 7.75500
H 0.83300 -2.61900 7.68000
H 2.00000 -3.75400 6.97600
Mg 10.51427 0.94910 0.78882
C 13.17788 -1.40443 0.29375
C 12.84023 3.42283 0.46450
C 8.28213 3.02650 1.66599
C 8.66212 -1.65182 2.18540
N 12.69557 0.89091 0.42719
C 13.58885 -0.05885 0.19406
C 14.98315 0.46334 -0.24504
C 14.90423 1.93167 0.40046
C 13.38817 2.11669 0.40231
C 15.39356 1.98411 1.83821
C 15.13248 0.52919 -1.80561
C 16.56387 0.73378 -2.30660
H 16.96801 0.07642 -3.54637
N 10.43060 2.91838 0.55752
C 11.47121 3.76618 0.41736
C 10.88290 5.10952 0.30122
C 9.41937 5.00372 0.54943
C 9.32169 3.61841 0.96349
C 11.68245 6.31649 -0.09548
C 8.29576 5.99005 0.44526
O 7.13795 5.74629 0.93811
C 8.61673 7.28709 -0.16805
N 8.81306 0.77544 1.97122
C 7.98541 1.82003 2.14941
C 6.69475 1.38797 2.80356
C 6.72945 -0.21090 2.80777
C 8.13575 -0.43507 2.20988
C 6.46813 1.89559 4.22741
C 5.52410 -0.94272 2.15644
C 5.51385 -0.69413 0.66530
N 10.75647 -1.18587 1.01528
C 9.87158 -2.08165 1.65452
C 10.52138 -3.40837 1.65660
C 11.75885 -3.18583 1.03401
C 11.88072 -1.81296 0.68776
C 9.98545 -4.59626 2.22917
C 12.99418 -3.79800 0.60054
O 13.42177 -4.95056 0.55055
C 14.02067 -2.64710 0.21565
C 14.63290 -2.99607 -1.11323
O 13.93448 -3.02935 -2.14168
O 15.97243 -3.01926 -0.98876
C 16.62533 -3.35008 -2.28340
H 13.51937 4.26421 0.60497
H 7.43620 3.67879 1.89489
H 8.10867 -2.53401 2.51419
H 15.82325 -0.08057 0.16990
H 15.37778 2.67085 -0.24042
H 15.60370 0.99938 2.22845
H 14.59824 2.45299 2.40272
H 16.25525 2.65292 1.91898
H 14.67139 1.45596 -2.17063
H 14.70964 -0.34255 -2.26593
H 17.30571 0.55692 -1.51835
H 16.69371 1.78745 -2.56531
H 12.76030 6.11727 -0.05132
H 11.51522 7.07789 0.67405
H 11.38178 6.72113 -1.06425
H 9.41190 7.76706 0.39745
H 7.66721 7.82173 -0.23483
H 9.00965 7.11005 -1.17547
H 5.83943 1.71938 2.22762
H 6.75465 -0.61520 3.83038
H 5.52730 2.46619 4.34279
H 7.31777 2.50143 4.51307
H 6.46422 1.12562 4.99705
H 4.58387 -0.54302 2.54419
H 5.51866 -2.01227 2.33817
H 5.01719 0.27706 0.58044
H 4.95172 -1.47118 0.15125
H 6.53301 -0.57808 0.27864
H 10.16825 -5.39327 1.52075
H 8.92421 -4.49018 2.44432
H 10.58476 -4.66071 3.14128
H 14.76706 -2.59499 1.00922
H 17.26635 -4.21899 -2.10511
H 17.12076 -2.41819 -2.61487
H 15.99329 -3.71442 -3.08479

