%nproc=24
%mem=175gb
#p cam-b3lyp/Def2SVP td=(nstates=5)

TDDFT excited states in gaussian

0 1
Mg 0.00000 0.00000 0.00000
C -0.21700 -2.21800 2.80100
C -1.25500 2.44200 2.02600
C -0.24500 1.85000 -2.56400
C 0.14600 -2.82400 -2.03700
N -0.61700 -0.00900 2.12600
C -0.59400 -0.90800 3.10500
C -0.93600 -0.30900 4.50200
C -1.77300 0.96400 4.03200
C -1.15500 1.16800 2.66000
C -3.26300 0.68500 3.86300
C 0.34500 0.11000 5.29900
C 0.12400 0.39700 6.78700
H 1.16800 0.03300 7.73300
N -0.18500 1.96100 -0.15200
C -0.70300 2.80000 0.77700
C -0.62000 4.15600 0.19300
C -0.18700 4.01500 -1.22500
C -0.21400 2.58300 -1.38000
C -0.88700 5.40600 0.97400
C 0.18100 5.01300 -2.27700
O 0.30300 4.69000 -3.50800
C 0.31000 6.41400 -1.83700
N -0.26500 -0.41300 -2.02900
C -0.27900 0.56900 -2.93700
C -0.19600 0.02400 -4.33200
C 0.12400 -1.53300 -4.18000
C 0.08600 -1.63200 -2.63500
C -1.45100 0.20500 -5.19700
C 1.37300 -2.07000 -4.92300
C 2.62600 -1.49000 -4.30600
N 0.15000 -2.14400 0.30300
C 0.17300 -3.13600 -0.68800
C 0.17300 -4.43800 0.00400
C 0.13300 -4.11100 1.35800
C 0.08300 -2.69500 1.50200
C 0.14900 -5.71500 -0.62300
C 0.09600 -4.62900 2.71600
O 0.20800 -5.74700 3.22100
C -0.25500 -3.42800 3.70100
C 0.71700 -3.48200 4.84800
O 1.93100 -3.25500 4.66900
O 0.03800 -3.55600 6.00300
C 0.94300 -3.58300 7.18300
H -1.85900 3.22000 2.49700
H -0.21800 2.45300 -3.47400
H 0.27600 -3.74700 -2.60500
H -1.55400 -0.94900 5.13200
H -1.58500 1.83100 4.66500
H -3.48400 -0.37700 3.96900
H -3.51100 1.02700 2.85800
H -3.85200 1.30100 4.54300
H 0.66900 1.09600 4.96600
H 1.13000 -0.63900 5.18900
H -0.84400 0.02600 7.12500
H 0.06200 1.47700 6.92100
H -1.34400 5.18600 1.93800
H -1.65100 5.96300 0.43200
H 0.00700 6.02000 1.08400
H -0.63500 6.74400 -1.40500
H 0.66500 6.97000 -2.70400
H 1.04800 6.46600 -1.03600
H 0.60800 0.50100 -4.89100
H -0.69200 -2.15600 -4.54700
H -1.26700 0.74000 -6.12900
H -2.20400 0.71400 -4.59600
H -1.96700 -0.72000 -5.45300
H 1.35600 -1.75900 -5.96700
H 1.45200 -3.15700 -4.90200
H 2.71400 -0.52200 -4.79800
H 3.48700 -2.12100 -4.52900
H 2.49500 -1.30300 -3.24000
H 0.86700 -6.33300 -0.08400
H 0.40400 -5.64200 -1.68000
H -0.89100 -5.99900 -0.46300
H -1.28300 -3.58100 4.02800
H 0.69800 -4.47800 7.75500
H 0.83300 -2.61900 7.68000
H 2.00000 -3.75400 6.97600
Mg 7.89113 0.70760 0.59219
C 7.60984 3.45755 -1.69642
C 7.39689 -1.36530 -2.07115
C 7.68430 -1.70885 2.63802
C 7.22366 2.96134 3.16529
N 7.55890 1.11300 -1.55665
C 7.53349 2.19488 -2.32034
C 7.50063 1.90529 -3.84501
C 6.86460 0.43154 -3.79621
C 7.32786 0.01142 -2.40280
C 5.34506 0.43093 -3.81473
C 8.93462 1.89125 -4.48179
C 8.95928 1.92220 -6.01156
H 10.03267 2.65655 -6.67566
N 8.07336 -1.24609 0.29478
C 7.85590 -1.91788 -0.85530
C 8.10568 -3.33450 -0.54714
C 8.32796 -3.46356 0.91868
C 8.00962 -2.11817 1.35304
C 8.19523 -4.39418 -1.60661
C 8.74417 -4.61166 1.78750
O 8.64353 -4.56094 3.06427
C 9.18528 -5.83139 1.09528
N 7.30197 0.59182 2.58263
C 7.35613 -0.57246 3.25303
C 7.14960 -0.35945 4.73369
C 7.18636 1.22480 4.94907
C 7.32470 1.67694 3.47876
C 5.85101 -0.92139 5.31186
C 8.20316 1.77028 5.98890
C 9.61487 1.54956 5.49520
N 7.66959 2.84982 0.76502
C 7.36610 3.58456 1.93213
C 7.20504 4.99641 1.52820
C 7.40487 4.98141 0.13956
C 7.65168 3.65091 -0.29442
C 6.86590 6.07542 2.39241
C 7.45264 5.78702 -1.05936
O 7.40445 6.99302 -1.29806
C 7.46227 4.81803 -2.31926
C 8.54573 5.28201 -3.25380
O 9.74077 5.22371 -2.91457
O 8.01210 5.51244 -4.46727
C 9.04981 5.96426 -5.43207
H 7.02533 -2.09232 -2.79384
H 7.70861 -2.48949 3.40188
H 7.11169 3.74004 3.92277
H 6.86300 2.56660 -4.41936
H 7.30247 -0.21293 -4.55403
H 4.94082 1.42936 -3.73818
H 5.04076 -0.16660 -2.96538
H 4.97908 -0.09603 -4.70056
H 9.39474 0.91032 -4.30628
H 9.53138 2.69404 -4.09446
H 7.98570 2.19905 -6.43399
H 9.13074 0.90659 -6.37648
H 7.82486 -4.02947 -2.57264
H 7.49161 -5.18586 -1.32730
H 9.19590 -4.82372 -1.68922
H 8.38556 -6.19086 0.45209
H 9.52645 -6.50684 1.88221
H 10.02594 -5.57722 0.44007
H 7.95175 -0.81045 5.30487
H 6.22011 1.60992 5.30669
H 6.01528 -1.63422 6.14190
H 5.29616 -1.39169 4.51092
H 5.14592 -0.17528 5.67428
H 8.11401 1.22149 6.92967
H 8.06669 2.82240 6.21564
H 9.81847 0.51424 5.78458
H 10.30289 2.23798 5.98177
H 9.66184 1.60137 4.40123
H 7.50779 6.90362 2.12305
H 6.98778 5.80070 3.43809
H 5.81532 6.21677 2.12490
H 6.47484 4.86940 -2.77961
H 8.70931 6.91952 -5.84343
H 9.18074 5.12743 -6.14364
H 10.01921 6.23926 -5.03321

