%nproc=24
%mem=175gb
#p cam-b3lyp/Def2SVP td=(nstates=5)

TDDFT excited states in gaussian

0 1
Mg 10.50520 0.94847 0.78975
C 11.52485 -1.72451 -1.37694
C 11.73591 3.11006 -1.54423
C 10.03136 3.30206 2.86424
C 10.41281 -1.37602 3.38473
N 11.48005 0.61497 -1.16746
C 11.75865 -0.44203 -1.91546
C 12.24442 -0.10438 -3.35058
C 12.80367 1.37522 -3.07327
C 11.93194 1.74542 -1.87506
C 14.25736 1.39603 -2.63091
C 11.06997 -0.08890 -4.39099
C 11.50946 -0.07220 -5.85671
H 10.70322 -0.79917 -6.83342
N 10.37883 2.90800 0.50198
C 10.91899 3.61828 -0.51046
C 10.55694 5.02119 -0.25569
C 9.89931 5.10136 1.07691
C 10.10075 3.74723 1.55215
C 10.76868 6.11232 -1.26466
C 9.21507 6.21617 1.80848
O 8.92624 6.12676 3.05404
C 8.97731 7.45121 1.04713
N 10.46261 1.00939 2.86745
C 10.18301 2.15129 3.52000
C 9.93701 1.89465 4.98766
C 9.87142 0.30408 5.14058
C 10.19379 -0.10348 3.68615
C 10.98758 2.45492 5.94619
C 8.60006 -0.28681 5.80928
C 7.39910 -0.06899 4.91729
N 10.71079 -1.19508 0.96584
C 10.66331 -1.96206 2.15056
C 10.96966 -3.35836 1.77781
C 11.19855 -3.30241 0.39471
C 11.06549 -1.96225 -0.05890
C 11.05520 -4.45945 2.67581
C 11.53292 -4.07059 -0.78291
O 11.67727 -5.26779 -1.02706
C 11.88336 -3.06278 -1.96100
C 11.14338 -3.51119 -3.19139
O 9.90072 -3.47899 -3.22845
O 12.02367 -3.69655 -4.19194
C 11.33616 -4.13127 -5.43700
H 12.29255 3.86412 -2.10139
H 9.76033 4.05800 3.60490
H 10.30757 -2.17657 4.12007
H 13.04006 -0.73907 -3.72193
H 12.60135 2.03741 -3.91108
H 14.64124 0.40100 -2.46153
H 14.27766 1.97052 -1.71407
H 14.86236 1.95519 -3.35039
H 10.55705 0.88001 -4.33758
H 10.40171 -0.91109 -4.22347
H 12.57097 -0.32307 -5.97163
H 11.43420 0.95205 -6.22990
H 11.42154 5.78289 -2.08238
H 11.33756 6.90388 -0.76499
H 9.83065 6.53127 -1.63513
H 9.92598 7.84097 0.68577
H 8.39963 8.09719 1.71111
H 8.37972 7.20687 0.16181
H 8.99012 2.31713 5.30072
H 10.69257 -0.07954 5.76378
H 10.56465 3.13919 6.70578
H 11.74814 2.95723 5.36330
H 11.56627 1.70698 6.48555
H 8.38875 0.23331 6.74682
H 8.68453 -1.34368 6.03928
H 7.09505 0.95404 5.15825
H 6.61139 -0.78115 5.15471
H 7.68608 -0.08708 3.85948
H 10.54294 -5.28703 2.20336
H 10.61704 -4.21925 3.64229
H 12.14032 -4.57876 2.73530
H 12.96462 -3.08693 -2.10201
H 11.80579 -5.06869 -5.75065
H 11.40819 -3.27431 -6.13283
H 10.29779 -4.43114 -5.35759

