%nproc=24
%mem=175gb
#p cam-b3lyp/Def2SVP td=(nstates=5)

TDDFT excited states in gaussian

0 1
Mg 13.14553 1.18983 0.99419
C 12.52228 4.01227 3.12126
C 12.28384 3.17545 -1.64198
C 13.24894 -1.38779 -0.85313
C 12.84365 -0.82943 3.81858
N 12.50481 3.30383 0.88143
C 12.36367 4.29505 1.74856
C 12.11296 5.68403 1.10246
C 11.49866 5.19093 -0.29696
C 12.16021 3.81707 -0.38375
C 9.99235 4.99404 -0.25697
C 13.44023 6.49438 0.89344
C 13.24395 7.97390 0.55543
H 14.20639 8.94057 1.07671
N 13.29363 1.02853 -0.97828
C 12.91633 1.93940 -1.89981
C 13.21565 1.33621 -3.20776
C 13.64760 -0.07080 -2.98762
C 13.38786 -0.20731 -1.56847
C 13.15732 2.10962 -4.49301
C 14.19096 -1.12378 -3.90533
O 14.27514 -2.35140 -3.54657
C 14.53432 -0.69200 -5.26810
N 12.85008 -0.83214 1.37722
C 13.00666 -1.74967 0.40689
C 13.01457 -3.14872 0.97522
C 13.07335 -2.96711 2.56303
C 12.99583 -1.42674 2.64460
C 11.81597 -4.02299 0.60726
C 14.22643 -3.68985 3.31184
C 15.55341 -3.06998 2.93732
N 12.93953 1.51077 3.12083
C 12.80345 0.52523 4.12297
C 12.57814 1.23174 5.40067
C 12.57580 2.58940 5.04676
C 12.76473 2.71905 3.64427
C 12.36124 0.61522 6.66517
C 12.44584 3.94194 5.53916
O 12.35717 4.45598 6.65345
C 12.27905 4.91841 4.29615
C 13.21393 6.08074 4.48985
O 14.44569 5.90969 4.47933
O 12.50970 7.22605 4.43788
C 13.39502 8.40802 4.61388
H 11.81597 3.64092 -2.50992
H 13.38737 -2.30647 -1.42789
H 12.83780 -1.38406 4.75934
H 11.39560 6.30532 1.62511
H 11.82623 5.82436 -1.11721
H 9.59792 5.10497 0.74216
H 9.81692 3.99119 -0.62380
H 9.50538 5.66530 -0.97013
H 13.92620 6.15358 -0.02983
H 14.08221 6.40096 1.74771
H 12.21815 8.30893 0.75148
H 13.36656 8.10277 -0.52270
H 12.64958 3.07292 -4.36011
H 12.50563 1.55066 -5.17326
H 14.13796 2.22630 -4.95926
H 13.65222 -0.27439 -5.74764
H 14.98905 -1.56264 -5.74465
H 15.27036 0.11715 -5.20371
H 13.89312 -3.69288 0.65098
H 12.16666 -3.35368 3.05120
H 12.10206 -4.96904 0.11004
H 11.15403 -3.44619 -0.02494
H 11.16642 -4.28999 1.43913
H 14.27682 -4.73829 3.00789
H 14.11833 -3.67230 4.39120
H 15.80224 -3.56945 1.99620
H 16.30062 -3.27344 3.70173
H 15.44191 -2.00063 2.72352
H 12.95307 1.16473 7.38508
H 12.63408 -0.43786 6.64607
H 11.28232 0.75789 6.76921
H 11.23531 5.23336 4.26471
H 12.99358 8.98590 5.45208
H 13.42658 8.90720 3.62718
H 14.41028 8.22849 4.94775

