%nproc=24
%mem=175gb
#p cam-b3lyp/Def2SVP td=(nstates=5)

TDDFT excited states in gaussian

0 1
Mg 31.52518 2.84256 2.40194
C 29.17089 0.13398 2.39824
C 29.01842 4.82589 1.21150
C 33.67807 5.13236 1.96690
C 34.06184 0.45424 2.48535
N 29.41077 2.41932 1.90961
C 28.61099 1.36802 2.00694
C 27.11210 1.67354 1.74321
C 27.29009 2.99152 0.84314
C 28.64050 3.46902 1.37330
C 27.43771 2.69239 -0.63944
C 26.32359 1.98224 3.06418
C 24.80030 1.98504 2.91812
H 23.99356 1.48952 4.02992
N 31.28946 4.79892 2.16601
C 30.19834 5.43567 1.69137
C 30.53482 6.86778 1.69520
C 31.97162 7.01109 2.05543
C 32.38299 5.62153 2.05645
C 29.51595 7.94367 1.45479
C 32.83582 8.20251 2.33806
O 34.11280 8.10933 2.39683
C 32.14982 9.49791 2.45134
N 33.57111 2.80291 2.03463
C 34.27845 3.94237 1.93857
C 35.76290 3.66545 1.94916
C 35.90827 2.11596 2.31728
C 34.41445 1.72729 2.37056
C 36.50187 3.94912 0.64155
C 36.80771 1.76289 3.53343
C 36.17215 2.26712 4.80905
N 31.63377 0.69595 2.62183
C 32.79614 -0.10569 2.60314
C 32.35505 -1.51383 2.67378
C 30.95466 -1.43401 2.70570
C 30.55088 -0.07317 2.63793
C 33.20646 -2.65434 2.65232
C 29.72589 -2.19203 2.77060
O 29.44495 -3.37918 2.93027
C 28.51300 -1.21710 2.44687
C 27.44757 -1.44064 3.48485
O 27.65632 -1.15378 4.67680
O 26.29128 -1.74945 2.87003
C 25.20130 -1.96955 3.85761
H 28.37087 5.47845 0.62522
H 34.46587 5.88818 1.92698
H 34.79467 -0.34510 2.61462
H 26.58439 0.91006 1.18428
H 26.51585 3.72365 1.05739
H 27.51723 1.63255 -0.83065
H 28.33885 3.20226 -0.95411
H 26.61936 3.15298 -1.20024
H 26.48760 3.03130 3.34223
H 26.61039 1.30609 3.84596
H 24.47583 1.52924 1.97476
H 24.46051 3.02108 2.84601
H 28.58211 7.53092 1.05357
H 29.90247 8.57552 0.64780
H 29.34209 8.56380 2.33676
H 31.61301 9.70420 1.52845
H 32.92161 10.21277 2.74320
H 31.39688 9.42690 3.24423
H 36.26093 4.25535 2.70882
H 36.35331 1.54108 1.49188
H 37.33734 4.66488 0.75876
H 35.78617 4.31530 -0.08248
H 36.90845 3.07189 0.14119
H 37.77416 2.26579 3.44835
H 37.00495 0.70053 3.63081
H 36.47949 3.31673 4.83974
H 36.55220 1.71925 5.66895
H 35.07840 2.24583 4.73893
H 32.83509 -3.33436 3.40740
H 34.24289 -2.38033 2.83811
H 33.04979 -2.99540 1.62548
H 28.16156 -1.45393 1.44189
H 24.79103 -2.96547 3.66397
H 24.51437 -1.11034 3.74082
H 25.48035 -2.05502 4.90130

