%nproc=24
%mem=175gb
#p cam-b3lyp/Def2SVP td=(nstates=5)

TDDFT excited states in gaussian

0 1
Mg 7.89124 0.70387 0.59525
C 7.86918 1.57970 -2.88491
C 7.37208 -2.52681 -0.36795
C 7.45648 -0.03277 3.65070
C 7.26646 4.05908 1.30090
N 7.66759 -0.22807 -1.39817
C 7.73869 0.19483 -2.65134
C 7.74654 -0.93770 -3.71289
C 7.01893 -2.08052 -2.85066
C 7.40135 -1.60987 -1.44890
C 5.50412 -2.05024 -2.96796
C 9.20030 -1.36418 -4.12118
C 9.28559 -2.24268 -5.37127
H 10.42719 -2.07156 -6.26567
N 7.96323 -1.05294 1.51558
C 7.74888 -2.26771 0.96817
C 7.89830 -3.23567 2.06585
C 8.05566 -2.48085 3.33871
C 7.80492 -1.13028 2.87700
C 7.96259 -4.71836 1.84015
C 8.36617 -2.90584 4.74198
O 8.21988 -2.10868 5.73493
C 8.75704 -4.31057 4.93023
N 7.21999 1.80128 2.22849
C 7.17604 1.25606 3.45679
C 6.92638 2.30740 4.51165
C 7.05302 3.71171 3.75704
C 7.27552 3.20500 2.31512
C 5.57418 2.23084 5.22024
C 8.06099 4.73757 4.34379
C 9.47422 4.22940 4.17078
N 7.79650 2.54035 -0.53896
C 7.49456 3.83025 -0.05002
C 7.43700 4.73541 -1.21613
C 7.68873 3.89831 -2.31358
C 7.86904 2.56194 -1.86514
C 7.13249 6.12530 -1.17612
C 7.83240 3.83945 -3.75045
O 7.86830 4.67294 -4.65474
C 7.83032 2.31385 -4.19645
C 8.97557 2.10695 -5.14939
O 10.15078 2.22731 -4.76081
O 8.50427 1.59138 -6.29937
C 9.60431 1.35807 -7.27266
H 6.98419 -3.52969 -0.54868
H 7.40296 -0.21248 4.72695
H 7.17398 5.13745 1.44664
H 7.17369 -0.72560 -4.60767
H 7.44478 -3.05973 -3.05351
H 5.15993 -1.18841 -3.52016
H 5.13093 -2.02275 -1.95257
H 5.14046 -2.98814 -3.39742
H 9.59162 -2.06466 -3.37222
H 9.83038 -0.50425 -4.24016
H 8.34801 -2.24188 -5.94038
H 9.40763 -3.28216 -5.05725
H 7.65294 -4.98404 0.82185
H 7.20100 -5.17296 2.48295
H 8.93712 -5.14113 2.09355
H 7.96188 -4.95824 4.56870
H 9.02518 -4.40050 5.98469
H 9.63640 -4.51524 4.30938
H 7.67647 2.25859 5.29145
H 6.09950 4.25999 3.75382
H 5.66191 2.14106 6.31948
H 5.02242 1.39395 4.81319
H 4.90332 3.06606 5.02647
H 7.90190 4.85244 5.41880
H 7.98143 5.72400 3.89925
H 9.60195 3.55927 5.02618
H 10.18440 5.05310 4.20519
H 9.56631 3.62431 3.26137
H 7.83438 6.61694 -1.83652
H 7.19683 6.51741 -0.16326
H 6.10375 6.11030 -1.54590
H 6.86639 2.11071 -4.66459
H 9.33978 1.89538 -8.18864
H 9.71033 0.25937 -7.34595
H 10.57286 1.78873 -7.04707

