%nproc=24
%mem=175gb
#p cam-b3lyp/Def2SVP td=(nstates=5)

TDDFT excited states in gaussian

0 1
Mg 8.94230 0.80051 0.67297
C 8.76696 2.89622 -2.23500
C 8.45651 -1.86340 -1.40120
C 8.64187 -1.02506 3.25065
C 8.27263 3.63569 2.58583
N 8.66214 0.66193 -1.51668
C 8.67563 1.51918 -2.52628
C 8.66705 0.85870 -3.93101
C 7.99821 -0.54577 -3.53229
C 8.42416 -0.61214 -2.06708
C 6.47970 -0.52651 -3.58785
C 10.11287 0.66305 -4.50835
C 10.16888 0.31073 -5.99647
H 11.27112 0.83866 -6.79572
N 9.08784 -1.16824 0.87644
C 8.87889 -2.10228 -0.07498
C 9.09152 -3.40095 0.58260
C 9.28149 -3.16356 2.03940
C 8.98390 -1.74739 2.11672
C 9.17918 -4.69287 -0.17680
C 9.65507 -4.06496 3.17699
O 9.52997 -3.69550 4.39792
C 10.08328 -5.42582 2.82176
N 8.31096 1.19479 2.61418
C 8.32628 0.23401 3.55471
C 8.09479 0.81321 4.92997
C 8.16174 2.40026 4.74459
C 8.33935 2.46874 3.21190
C 6.77293 0.43437 5.59747
C 9.16913 3.17161 5.64062
C 10.58531 2.81193 5.25274
N 8.76407 2.92133 0.30093
C 8.45333 3.92895 1.24020
C 8.33120 5.19767 0.49329
C 8.55847 4.83327 -0.84239
C 8.78488 3.43275 -0.92483
C 7.99840 6.46357 1.05263
C 8.64781 5.31320 -2.20268
O 8.63071 6.42204 -2.73551
C 8.66159 4.06034 -3.18071
C 9.77343 4.25882 -4.17416
O 10.95987 4.26781 -3.80151
O 9.26938 4.18759 -5.41965
C 10.33584 4.36748 -6.44050
H 8.08377 -2.74173 -1.92891
H 8.63384 -1.59058 4.18532
H 8.16250 4.58052 3.12232
H 8.05563 1.36588 -4.66770
H 8.43704 -1.36598 -4.09447
H 6.09585 0.46579 -3.77260
H 6.14547 -0.88812 -2.62422
H 6.12016 -1.25197 -4.32322
H 10.54790 -0.25028 -4.08253
H 10.71910 1.52740 -4.31859
H 9.21023 0.48900 -6.49862
H 10.32545 -0.76644 -6.09239
H 8.83629 -4.57495 -1.21214
H 8.45301 -5.37832 0.27341
H 10.17170 -5.14548 -0.12486
H 9.28899 -5.92155 2.26877
H 10.39381 -5.88884 3.76041
H 10.94225 -5.35683 2.14498
H 8.87530 0.50622 5.61528
H 7.19714 2.87797 4.97082
H 6.90495 -0.05122 6.58278
H 6.22413 -0.21199 4.92547
H 6.07713 1.25859 5.74488
H 9.04919 2.87656 6.68596
H 9.05110 4.24907 5.59454
H 10.76046 1.87849 5.79598
H 11.27827 3.58885 5.56935
H 10.65532 2.58824 4.18190
H 8.66346 7.18786 0.60142
H 8.09327 6.45666 2.13648
H 6.95672 6.55056 0.73231
H 7.68495 4.01105 -3.66373
H 10.02456 5.19516 -7.08528
H 10.46274 3.37752 -6.91760
H 11.30281 4.71770 -6.09879

