%nproc=24
%mem=175gb
#p cam-b3lyp/Def2SVP td=(nstates=5)

TDDFT excited states in gaussian

0 1
Mg 0.00000 0.00000 0.00000
C -0.21700 -2.21800 2.80100
C -1.25500 2.44200 2.02600
C -0.24500 1.85000 -2.56400
C 0.14600 -2.82400 -2.03700
N -0.61700 -0.00900 2.12600
C -0.59400 -0.90800 3.10500
C -0.93600 -0.30900 4.50200
C -1.77300 0.96400 4.03200
C -1.15500 1.16800 2.66000
C -3.26300 0.68500 3.86300
C 0.34500 0.11000 5.29900
C 0.12400 0.39700 6.78700
H 1.16800 0.03300 7.73300
N -0.18500 1.96100 -0.15200
C -0.70300 2.80000 0.77700
C -0.62000 4.15600 0.19300
C -0.18700 4.01500 -1.22500
C -0.21400 2.58300 -1.38000
C -0.88700 5.40600 0.97400
C 0.18100 5.01300 -2.27700
O 0.30300 4.69000 -3.50800
C 0.31000 6.41400 -1.83700
N -0.26500 -0.41300 -2.02900
C -0.27900 0.56900 -2.93700
C -0.19600 0.02400 -4.33200
C 0.12400 -1.53300 -4.18000
C 0.08600 -1.63200 -2.63500
C -1.45100 0.20500 -5.19700
C 1.37300 -2.07000 -4.92300
C 2.62600 -1.49000 -4.30600
N 0.15000 -2.14400 0.30300
C 0.17300 -3.13600 -0.68800
C 0.17300 -4.43800 0.00400
C 0.13300 -4.11100 1.35800
C 0.08300 -2.69500 1.50200
C 0.14900 -5.71500 -0.62300
C 0.09600 -4.62900 2.71600
O 0.20800 -5.74700 3.22100
C -0.25500 -3.42800 3.70100
C 0.71700 -3.48200 4.84800
O 1.93100 -3.25500 4.66900
O 0.03800 -3.55600 6.00300
C 0.94300 -3.58300 7.18300
H -1.85900 3.22000 2.49700
H -0.21800 2.45300 -3.47400
H 0.27600 -3.74700 -2.60500
H -1.55400 -0.94900 5.13200
H -1.58500 1.83100 4.66500
H -3.48400 -0.37700 3.96900
H -3.51100 1.02700 2.85800
H -3.85200 1.30100 4.54300
H 0.66900 1.09600 4.96600
H 1.13000 -0.63900 5.18900
H -0.84400 0.02600 7.12500
H 0.06200 1.47700 6.92100
H -1.34400 5.18600 1.93800
H -1.65100 5.96300 0.43200
H 0.00700 6.02000 1.08400
H -0.63500 6.74400 -1.40500
H 0.66500 6.97000 -2.70400
H 1.04800 6.46600 -1.03600
H 0.60800 0.50100 -4.89100
H -0.69200 -2.15600 -4.54700
H -1.26700 0.74000 -6.12900
H -2.20400 0.71400 -4.59600
H -1.96700 -0.72000 -5.45300
H 1.35600 -1.75900 -5.96700
H 1.45200 -3.15700 -4.90200
H 2.71400 -0.52200 -4.79800
H 3.48700 -2.12100 -4.52900
H 2.49500 -1.30300 -3.24000
H 0.86700 -6.33300 -0.08400
H 0.40400 -5.64200 -1.68000
H -0.89100 -5.99900 -0.46300
H -1.28300 -3.58100 4.02800
H 0.69800 -4.47800 7.75500
H 0.83300 -2.61900 7.68000
H 2.00000 -3.75400 6.97600
Mg 8.93932 0.80739 0.66990
C 11.70016 -1.48531 0.65210
C 11.22929 3.33085 0.82081
C 6.53676 2.82579 1.14026
C 6.91662 -1.85258 1.65932
N 11.15050 0.79764 0.72326
C 12.09252 -0.13051 0.64925
C 13.53243 0.42604 0.48659
C 13.30137 1.88121 1.12533
C 11.80807 2.03682 0.84513
C 13.51143 1.91827 2.62993
C 13.96994 0.52171 -1.01722
C 15.46495 0.76255 -1.23796
H 16.10867 0.13463 -2.38852
N 8.85670 2.77839 0.45329
C 9.88604 3.64844 0.52220
C 9.30019 4.98196 0.31565
C 7.81879 4.84362 0.28340
C 7.67610 3.44973 0.65327
C 10.13287 6.21083 0.09217
C 6.71294 5.80969 -0.01659
O 5.48902 5.53511 0.24695
C 7.11421 7.12309 -0.54143
N 7.05102 0.58048 1.50966
C 6.18163 1.60564 1.54330
C 4.80121 1.13748 1.93781
C 4.87004 -0.46025 1.92715
C 6.36807 -0.64683 1.60082
C 4.30066 1.61596 3.30049
C 3.82461 -1.20388 1.05150
C 4.08834 -0.92983 -0.41162
N 9.18221 -1.32609 0.90930
C 8.21337 -2.24972 1.35914
C 8.88060 -3.56347 1.46543
C 10.20754 -3.30632 1.08912
C 10.36157 -1.92558 0.79022
C 8.27345 -4.77120 1.91137
C 11.51550 -3.88692 0.88702
O 11.97040 -5.02996 0.90280
C 12.57008 -2.70991 0.71697
C 13.42800 -3.02399 -0.47795
O 12.93551 -3.05300 -1.61954
O 14.72068 -3.02342 -0.10466
C 15.61173 -3.31916 -1.25809
H 11.85122 4.18266 1.09743
H 5.64864 3.45756 1.21505
H 6.33113 -2.75085 1.86663
H 14.29181 -0.10860 1.04450
H 13.87004 2.64036 0.59461
H 13.66658 0.93119 3.03950
H 12.61422 2.36187 3.04137
H 14.32765 2.60212 2.87986
H 13.56491 1.44555 -1.44989
H 13.66031 -0.34997 -1.56030
H 16.04974 0.58648 -0.32693
H 15.61749 1.82284 -1.45363
H 11.18753 6.03175 0.33513
H 9.80757 6.95545 0.82673
H 10.01008 6.62625 -0.91033
H 7.77851 7.60850 0.16958
H 6.18237 7.64034 -0.77806
H 7.69272 6.97110 -1.45949
H 4.06177 1.46219 1.21608
H 4.71221 -0.88159 2.93084
H 3.34241 2.16620 3.24488
H 5.06806 2.23310 3.74856
H 4.16976 0.83290 4.04539
H 2.81973 -0.82919 1.26124
H 3.80900 -2.27632 1.21471
H 3.59490 0.03290 -0.57521
H 3.64987 -1.70861 -1.03233
H 5.15905 -0.78744 -0.59859
H 8.60339 -5.55217 1.23927
H 7.18860 -4.68939 1.92495
H 8.69257 -4.83979 2.91879
H 13.15325 -2.65709 1.63713
H 16.22715 -4.17846 -0.97428
H 16.13964 -2.37227 -1.47825
H 15.14925 -3.68175 -2.16863

