%nproc=24
%mem=175gb
#p cam-b3lyp/Def2SVP td=(nstates=5)

TDDFT excited states in gaussian

0 1
Mg 0.00000 0.00000 0.00000
C -0.21700 -2.21800 2.80100
C -1.25500 2.44200 2.02600
C -0.24500 1.85000 -2.56400
C 0.14600 -2.82400 -2.03700
N -0.61700 -0.00900 2.12600
C -0.59400 -0.90800 3.10500
C -0.93600 -0.30900 4.50200
C -1.77300 0.96400 4.03200
C -1.15500 1.16800 2.66000
C -3.26300 0.68500 3.86300
C 0.34500 0.11000 5.29900
C 0.12400 0.39700 6.78700
H 1.16800 0.03300 7.73300
N -0.18500 1.96100 -0.15200
C -0.70300 2.80000 0.77700
C -0.62000 4.15600 0.19300
C -0.18700 4.01500 -1.22500
C -0.21400 2.58300 -1.38000
C -0.88700 5.40600 0.97400
C 0.18100 5.01300 -2.27700
O 0.30300 4.69000 -3.50800
C 0.31000 6.41400 -1.83700
N -0.26500 -0.41300 -2.02900
C -0.27900 0.56900 -2.93700
C -0.19600 0.02400 -4.33200
C 0.12400 -1.53300 -4.18000
C 0.08600 -1.63200 -2.63500
C -1.45100 0.20500 -5.19700
C 1.37300 -2.07000 -4.92300
C 2.62600 -1.49000 -4.30600
N 0.15000 -2.14400 0.30300
C 0.17300 -3.13600 -0.68800
C 0.17300 -4.43800 0.00400
C 0.13300 -4.11100 1.35800
C 0.08300 -2.69500 1.50200
C 0.14900 -5.71500 -0.62300
C 0.09600 -4.62900 2.71600
O 0.20800 -5.74700 3.22100
C -0.25500 -3.42800 3.70100
C 0.71700 -3.48200 4.84800
O 1.93100 -3.25500 4.66900
O 0.03800 -3.55600 6.00300
C 0.94300 -3.58300 7.18300
H -1.85900 3.22000 2.49700
H -0.21800 2.45300 -3.47400
H 0.27600 -3.74700 -2.60500
H -1.55400 -0.94900 5.13200
H -1.58500 1.83100 4.66500
H -3.48400 -0.37700 3.96900
H -3.51100 1.02700 2.85800
H -3.85200 1.30100 4.54300
H 0.66900 1.09600 4.96600
H 1.13000 -0.63900 5.18900
H -0.84400 0.02600 7.12500
H 0.06200 1.47700 6.92100
H -1.34400 5.18600 1.93800
H -1.65100 5.96300 0.43200
H 0.00700 6.02000 1.08400
H -0.63500 6.74400 -1.40500
H 0.66500 6.97000 -2.70400
H 1.04800 6.46600 -1.03600
H 0.60800 0.50100 -4.89100
H -0.69200 -2.15600 -4.54700
H -1.26700 0.74000 -6.12900
H -2.20400 0.71400 -4.59600
H -1.96700 -0.72000 -5.45300
H 1.35600 -1.75900 -5.96700
H 1.45200 -3.15700 -4.90200
H 2.71400 -0.52200 -4.79800
H 3.48700 -2.12100 -4.52900
H 2.49500 -1.30300 -3.24000
H 0.86700 -6.33300 -0.08400
H 0.40400 -5.64200 -1.68000
H -0.89100 -5.99900 -0.46300
H -1.28300 -3.58100 4.02800
H 0.69800 -4.47800 7.75500
H 0.83300 -2.61900 7.68000
H 2.00000 -3.75400 6.97600
Mg 13.14794 1.18691 0.99525
C 15.38762 -0.94437 2.81747
C 14.45956 3.80731 2.74103
C 10.88679 3.02567 -0.25918
C 11.26683 -1.65285 0.25842
N 14.71684 1.29125 2.55085
C 15.54160 0.42476 3.11946
C 16.64263 1.06967 4.00342
C 15.89743 2.45013 4.34675
C 14.98961 2.54888 3.12251
C 15.02129 2.36911 5.58577
C 17.97506 1.31740 3.21269
C 19.18653 1.65616 4.08410
H 20.49880 1.16477 3.67305
N 13.04259 3.16195 0.83180
C 13.65730 4.07683 1.61052
C 13.24238 5.38980 1.09272
C 12.20308 5.17547 0.04934
C 11.98407 3.74933 0.18449
C 13.87845 6.67622 1.53315
C 11.51051 6.10300 -0.90262
O 10.46987 5.74155 -1.55779
C 12.03058 7.47623 -0.97510
N 11.22809 0.78777 0.30443
C 10.47404 1.75814 -0.24120
C 9.24958 1.18446 -0.91350
C 9.46321 -0.40045 -0.91516
C 10.79064 -0.47770 -0.12944
C 7.91134 1.51666 -0.25386
C 9.37397 -1.12118 -2.28820
C 10.53515 -0.70879 -3.16399
N 13.36996 -0.94313 1.28104
C 12.45103 -1.95261 0.91963
C 12.99135 -3.23294 1.42087
C 14.18525 -2.87362 2.06428
C 14.36544 -1.46605 1.98817
C 12.36531 -4.50532 1.29745
C 15.32874 -3.36372 2.79977
O 15.75994 -4.47784 3.09392
C 16.09448 -2.12159 3.42995
C 17.56165 -2.28545 3.14169
O 17.98479 -2.24273 1.97305
O 18.24520 -2.24758 4.30001
C 19.70634 -2.39498 4.06512
H 14.63897 4.66436 3.39077
H 10.12963 3.60013 -0.79787
H 10.78875 -2.59571 -0.01568
H 16.86589 0.53061 4.91630
H 16.59722 3.28145 4.37058
H 14.95151 1.36027 5.96460
H 14.04664 2.72698 5.28077
H 15.37630 3.07178 6.34509
H 17.88548 2.25191 2.64400
H 18.20568 0.48021 2.58296
H 19.00748 1.43417 5.14316
H 19.34032 2.73770 4.05924
H 14.49568 6.53378 2.42878
H 13.06916 7.33651 1.86320
H 14.43157 7.16897 0.73071
H 11.98070 7.93376 0.01011
H 11.46504 7.96115 -1.77316
H 13.09056 7.43487 -1.24959
H 9.17293 1.52979 -1.93721
H 8.70625 -0.91425 -0.30453
H 7.20011 2.01743 -0.93756
H 8.10249 2.13333 0.61431
H 7.38562 0.66665 0.17777
H 8.46535 -0.82033 -2.81550
H 9.35647 -2.20296 -2.20785
H 10.19432 0.23656 -3.59670
H 10.71608 -1.45381 -3.93616
H 11.42541 -0.49364 -2.56167
H 13.13897 -5.20689 1.01506
H 11.56094 -4.48329 0.56513
H 11.98987 -4.63755 2.31570
H 15.88564 -2.11673 4.50044
H 20.04366 -3.24121 4.67157
H 20.14662 -1.40574 4.29160
H 20.02654 -2.70236 3.07646

