%nproc=24
%mem=175gb
#p cam-b3lyp/Def2SVP td=(nstates=5)

TDDFT excited states in gaussian

0 1
Mg 0.00000 0.00000 0.00000
C -0.21700 -2.21800 2.80100
C -1.25500 2.44200 2.02600
C -0.24500 1.85000 -2.56400
C 0.14600 -2.82400 -2.03700
N -0.61700 -0.00900 2.12600
C -0.59400 -0.90800 3.10500
C -0.93600 -0.30900 4.50200
C -1.77300 0.96400 4.03200
C -1.15500 1.16800 2.66000
C -3.26300 0.68500 3.86300
C 0.34500 0.11000 5.29900
C 0.12400 0.39700 6.78700
H 1.16800 0.03300 7.73300
N -0.18500 1.96100 -0.15200
C -0.70300 2.80000 0.77700
C -0.62000 4.15600 0.19300
C -0.18700 4.01500 -1.22500
C -0.21400 2.58300 -1.38000
C -0.88700 5.40600 0.97400
C 0.18100 5.01300 -2.27700
O 0.30300 4.69000 -3.50800
C 0.31000 6.41400 -1.83700
N -0.26500 -0.41300 -2.02900
C -0.27900 0.56900 -2.93700
C -0.19600 0.02400 -4.33200
C 0.12400 -1.53300 -4.18000
C 0.08600 -1.63200 -2.63500
C -1.45100 0.20500 -5.19700
C 1.37300 -2.07000 -4.92300
C 2.62600 -1.49000 -4.30600
N 0.15000 -2.14400 0.30300
C 0.17300 -3.13600 -0.68800
C 0.17300 -4.43800 0.00400
C 0.13300 -4.11100 1.35800
C 0.08300 -2.69500 1.50200
C 0.14900 -5.71500 -0.62300
C 0.09600 -4.62900 2.71600
O 0.20800 -5.74700 3.22100
C -0.25500 -3.42800 3.70100
C 0.71700 -3.48200 4.84800
O 1.93100 -3.25500 4.66900
O 0.03800 -3.55600 6.00300
C 0.94300 -3.58300 7.18300
H -1.85900 3.22000 2.49700
H -0.21800 2.45300 -3.47400
H 0.27600 -3.74700 -2.60500
H -1.55400 -0.94900 5.13200
H -1.58500 1.83100 4.66500
H -3.48400 -0.37700 3.96900
H -3.51100 1.02700 2.85800
H -3.85200 1.30100 4.54300
H 0.66900 1.09600 4.96600
H 1.13000 -0.63900 5.18900
H -0.84400 0.02600 7.12500
H 0.06200 1.47700 6.92100
H -1.34400 5.18600 1.93800
H -1.65100 5.96300 0.43200
H 0.00700 6.02000 1.08400
H -0.63500 6.74400 -1.40500
H 0.66500 6.97000 -2.70400
H 1.04800 6.46600 -1.03600
H 0.60800 0.50100 -4.89100
H -0.69200 -2.15600 -4.54700
H -1.26700 0.74000 -6.12900
H -2.20400 0.71400 -4.59600
H -1.96700 -0.72000 -5.45300
H 1.35600 -1.75900 -5.96700
H 1.45200 -3.15700 -4.90200
H 2.71400 -0.52200 -4.79800
H 3.48700 -2.12100 -4.52900
H 2.49500 -1.30300 -3.24000
H 0.86700 -6.33300 -0.08400
H 0.40400 -5.64200 -1.68000
H -0.89100 -5.99900 -0.46300
H -1.28300 -3.58100 4.02800
H 0.69800 -4.47800 7.75500
H 0.83300 -2.61900 7.68000
H 2.00000 -3.75400 6.97600
Mg 13.13152 1.17861 1.00475
C 12.68181 3.88805 3.31467
C 14.20051 -0.69780 3.64500
C 13.96321 -1.07874 -1.06409
C 13.13246 3.54404 -1.55464
N 13.36581 1.64632 3.15384
C 13.10528 2.68992 3.92673
C 13.23301 2.41116 5.44842
C 14.24468 1.16585 5.38067
C 13.89695 0.64393 3.98806
C 15.70741 1.57786 5.38486
C 11.86410 2.00443 6.09856
C 11.84950 2.01851 7.62870
H 10.62472 2.42980 8.30932
N 13.49001 -0.75286 1.28669
C 13.89487 -1.34711 2.42873
C 14.03559 -2.77648 2.11051
C 13.83991 -2.95242 0.64576
C 13.77601 -1.56860 0.22026
C 14.24928 -3.82687 3.16142
C 13.74113 -4.16525 -0.22915
O 13.80958 -4.08158 -1.50631
C 13.65574 -5.46300 0.45646
N 13.70712 1.23892 -0.99210
C 13.96344 0.10767 -1.67216
C 14.08739 0.37748 -3.15278
C 13.61939 1.89344 -3.35387
C 13.38036 2.28234 -1.87840
C 15.48305 0.19276 -3.74808
C 12.48084 2.14838 -4.37924
C 11.18784 1.54964 -3.87419
N 12.76110 3.30146 0.84866
C 12.84029 4.09786 -0.31476
C 12.61659 5.49799 0.10002
C 12.44427 5.42109 1.49030
C 12.57297 4.07103 1.91488
C 12.64009 6.63362 -0.75783
C 12.19331 6.17637 2.69665
O 11.91498 7.34870 2.94547
C 12.46158 5.23378 3.94802
C 11.30363 5.38054 4.89678
O 10.16550 5.00186 4.56834
O 11.76853 5.74008 6.10714
C 10.65825 5.88739 7.08562
H 14.76377 -1.30083 4.35773
H 14.14302 -1.83213 -1.83451
H 13.02010 4.32832 -2.30626
H 13.67366 3.21740 6.02252
H 14.00695 0.42224 6.13690
H 15.82448 2.64898 5.31327
H 16.15276 1.09045 4.52746
H 16.21285 1.16489 6.26254
H 11.68561 0.93646 5.91877
H 11.06738 2.61724 5.72393
H 12.71611 2.54688 8.04434
H 11.96442 0.99238 7.98628
H 14.51775 -3.38098 4.12708
H 15.13817 -4.39604 2.86854
H 13.40383 -4.51251 3.24969
H 14.53033 -5.59554 1.08890
H 13.50177 -6.20107 -0.33311
H 12.78521 -5.45056 1.12178
H 13.43133 -0.27106 -3.72030
H 14.44061 2.52861 -3.71719
H 15.50899 -0.53298 -4.58276
H 16.15390 -0.11388 -2.95658
H 15.95488 1.10446 -4.11056
H 12.70485 1.64999 -5.32559
H 12.32390 3.19933 -4.59799
H 11.26969 0.49967 -4.17073
H 10.33322 2.02818 -4.34819
H 11.14112 1.58030 -2.77942
H 11.80058 7.25476 -0.47516
H 12.58540 6.34228 -1.80469
H 13.61583 7.05340 -0.49901
H 13.40318 5.54867 4.39947
H 10.73128 6.89678 7.50213
H 10.76762 5.04228 7.79101
H 9.64610 5.89112 6.69835

