%nproc=24
%mem=175gb
#p cam-b3lyp/Def2SVP td=(nstates=5)

TDDFT excited states in gaussian

0 1
Mg 0.00000 0.00000 0.00000
C -0.21700 -2.21800 2.80100
C -1.25500 2.44200 2.02600
C -0.24500 1.85000 -2.56400
C 0.14600 -2.82400 -2.03700
N -0.61700 -0.00900 2.12600
C -0.59400 -0.90800 3.10500
C -0.93600 -0.30900 4.50200
C -1.77300 0.96400 4.03200
C -1.15500 1.16800 2.66000
C -3.26300 0.68500 3.86300
C 0.34500 0.11000 5.29900
C 0.12400 0.39700 6.78700
H 1.16800 0.03300 7.73300
N -0.18500 1.96100 -0.15200
C -0.70300 2.80000 0.77700
C -0.62000 4.15600 0.19300
C -0.18700 4.01500 -1.22500
C -0.21400 2.58300 -1.38000
C -0.88700 5.40600 0.97400
C 0.18100 5.01300 -2.27700
O 0.30300 4.69000 -3.50800
C 0.31000 6.41400 -1.83700
N -0.26500 -0.41300 -2.02900
C -0.27900 0.56900 -2.93700
C -0.19600 0.02400 -4.33200
C 0.12400 -1.53300 -4.18000
C 0.08600 -1.63200 -2.63500
C -1.45100 0.20500 -5.19700
C 1.37300 -2.07000 -4.92300
C 2.62600 -1.49000 -4.30600
N 0.15000 -2.14400 0.30300
C 0.17300 -3.13600 -0.68800
C 0.17300 -4.43800 0.00400
C 0.13300 -4.11100 1.35800
C 0.08300 -2.69500 1.50200
C 0.14900 -5.71500 -0.62300
C 0.09600 -4.62900 2.71600
O 0.20800 -5.74700 3.22100
C -0.25500 -3.42800 3.70100
C 0.71700 -3.48200 4.84800
O 1.93100 -3.25500 4.66900
O 0.03800 -3.55600 6.00300
C 0.94300 -3.58300 7.18300
H -1.85900 3.22000 2.49700
H -0.21800 2.45300 -3.47400
H 0.27600 -3.74700 -2.60500
H -1.55400 -0.94900 5.13200
H -1.58500 1.83100 4.66500
H -3.48400 -0.37700 3.96900
H -3.51100 1.02700 2.85800
H -3.85200 1.30100 4.54300
H 0.66900 1.09600 4.96600
H 1.13000 -0.63900 5.18900
H -0.84400 0.02600 7.12500
H 0.06200 1.47700 6.92100
H -1.34400 5.18600 1.93800
H -1.65100 5.96300 0.43200
H 0.00700 6.02000 1.08400
H -0.63500 6.74400 -1.40500
H 0.66500 6.97000 -2.70400
H 1.04800 6.46600 -1.03600
H 0.60800 0.50100 -4.89100
H -0.69200 -2.15600 -4.54700
H -1.26700 0.74000 -6.12900
H -2.20400 0.71400 -4.59600
H -1.96700 -0.72000 -5.45300
H 1.35600 -1.75900 -5.96700
H 1.45200 -3.15700 -4.90200
H 2.71400 -0.52200 -4.79800
H 3.48700 -2.12100 -4.52900
H 2.49500 -1.30300 -3.24000
H 0.86700 -6.33300 -0.08400
H 0.40400 -5.64200 -1.68000
H -0.89100 -5.99900 -0.46300
H -1.28300 -3.58100 4.02800
H 0.69800 -4.47800 7.75500
H 0.83300 -2.61900 7.68000
H 2.00000 -3.75400 6.97600
Mg 10.51599 0.94126 0.80625
C 7.89205 0.59161 3.22942
C 12.23259 2.73593 3.14441
C 12.64071 1.64922 -1.44137
C 8.17118 0.13819 -1.64378
N 10.02161 1.52103 2.88271
C 9.02264 1.27896 3.71806
C 9.28213 1.73268 5.17969
C 10.38033 2.86743 4.88785
C 10.94384 2.33006 3.57394
C 9.77568 4.23639 4.62385
C 9.86912 0.58016 6.06803
C 9.85754 0.85854 7.57273
H 9.61457 -0.25567 8.48486
N 12.38192 1.59848 0.96419
C 12.91673 2.29019 1.99220
C 14.31419 2.55403 1.61581
C 14.51442 2.10508 0.21115
C 13.15160 1.77882 -0.15812
C 15.32666 3.10237 2.57895
C 15.72931 2.00039 -0.66021
O 15.63687 1.81018 -1.92438
C 17.02695 2.22017 -0.00499
N 10.37842 1.10883 -1.26144
C 11.46485 1.37619 -2.00717
C 11.18045 1.17629 -3.47671
C 9.74099 0.48287 -3.54529
C 9.38809 0.48312 -2.04167
C 11.17597 2.44327 -4.33178
C 9.64094 -0.85518 -4.32778
C 10.40797 -1.93651 -3.60129
N 8.46205 0.27146 0.77907
C 7.66191 0.01972 -0.35693
C 6.30460 -0.30238 0.12927
C 6.40430 -0.19232 1.52442
C 7.72497 0.19233 1.88131
C 5.17588 -0.59415 -0.68741
C 5.68986 -0.30370 2.77577
O 4.56558 -0.68086 3.10358
C 6.58824 0.32209 3.92803
C 6.59851 -0.64070 5.08364
O 7.12646 -1.76079 4.96843
O 6.18012 -0.00307 6.19213
C 6.18346 -0.91387 7.36783
H 12.75473 3.50022 3.72072
H 13.36293 1.77504 -2.25133
H 7.40888 -0.21898 -2.33949
H 8.42419 2.16548 5.68008
H 11.14933 2.87970 5.65587
H 8.69852 4.19539 4.55922
H 10.19867 4.56867 3.68485
H 10.11729 4.95116 5.37799
H 10.95134 0.51265 5.89778
H 9.36872 -0.34738 5.86828
H 9.21771 1.71166 7.82917
H 10.85904 1.17424 7.87495
H 14.84901 3.49054 3.48701
H 15.77126 3.98537 2.10723
H 16.11962 2.38751 2.80886
H 17.04105 3.20981 0.44544
H 17.77880 2.01572 -0.76971
H 17.13167 1.50003 0.81418
H 11.91104 0.51453 -3.92548
H 9.00123 1.12790 -4.04180
H 11.89144 2.40346 -5.17475
H 11.38998 3.28830 -3.69096
H 10.20909 2.71228 -4.75366
H 10.10450 -0.75380 -5.31216
H 8.62051 -1.18828 -4.48512
H 11.43738 -1.77570 -3.93528
H 10.04838 -2.92179 -3.89102
H 10.38415 -1.77533 -2.51727
H 4.67313 -1.43793 -0.23377
H 5.47164 -0.81041 -1.71187
H 4.62896 0.34921 -0.60849
H 6.14990 1.28314 4.19974
H 5.17351 -0.89564 7.78896
H 7.00642 -0.56049 8.01715
H 6.31555 -1.97313 7.18085

