%nproc=24
%mem=175gb
#p cam-b3lyp/Def2SVP td=(nstates=5)

TDDFT excited states in gaussian

0 1
Mg 0.00000 0.00000 0.00000
C -0.21700 -2.21800 2.80100
C -1.25500 2.44200 2.02600
C -0.24500 1.85000 -2.56400
C 0.14600 -2.82400 -2.03700
N -0.61700 -0.00900 2.12600
C -0.59400 -0.90800 3.10500
C -0.93600 -0.30900 4.50200
C -1.77300 0.96400 4.03200
C -1.15500 1.16800 2.66000
C -3.26300 0.68500 3.86300
C 0.34500 0.11000 5.29900
C 0.12400 0.39700 6.78700
H 1.16800 0.03300 7.73300
N -0.18500 1.96100 -0.15200
C -0.70300 2.80000 0.77700
C -0.62000 4.15600 0.19300
C -0.18700 4.01500 -1.22500
C -0.21400 2.58300 -1.38000
C -0.88700 5.40600 0.97400
C 0.18100 5.01300 -2.27700
O 0.30300 4.69000 -3.50800
C 0.31000 6.41400 -1.83700
N -0.26500 -0.41300 -2.02900
C -0.27900 0.56900 -2.93700
C -0.19600 0.02400 -4.33200
C 0.12400 -1.53300 -4.18000
C 0.08600 -1.63200 -2.63500
C -1.45100 0.20500 -5.19700
C 1.37300 -2.07000 -4.92300
C 2.62600 -1.49000 -4.30600
N 0.15000 -2.14400 0.30300
C 0.17300 -3.13600 -0.68800
C 0.17300 -4.43800 0.00400
C 0.13300 -4.11100 1.35800
C 0.08300 -2.69500 1.50200
C 0.14900 -5.71500 -0.62300
C 0.09600 -4.62900 2.71600
O 0.20800 -5.74700 3.22100
C -0.25500 -3.42800 3.70100
C 0.71700 -3.48200 4.84800
O 1.93100 -3.25500 4.66900
O 0.03800 -3.55600 6.00300
C 0.94300 -3.58300 7.18300
H -1.85900 3.22000 2.49700
H -0.21800 2.45300 -3.47400
H 0.27600 -3.74700 -2.60500
H -1.55400 -0.94900 5.13200
H -1.58500 1.83100 4.66500
H -3.48400 -0.37700 3.96900
H -3.51100 1.02700 2.85800
H -3.85200 1.30100 4.54300
H 0.66900 1.09600 4.96600
H 1.13000 -0.63900 5.18900
H -0.84400 0.02600 7.12500
H 0.06200 1.47700 6.92100
H -1.34400 5.18600 1.93800
H -1.65100 5.96300 0.43200
H 0.00700 6.02000 1.08400
H -0.63500 6.74400 -1.40500
H 0.66500 6.97000 -2.70400
H 1.04800 6.46600 -1.03600
H 0.60800 0.50100 -4.89100
H -0.69200 -2.15600 -4.54700
H -1.26700 0.74000 -6.12900
H -2.20400 0.71400 -4.59600
H -1.96700 -0.72000 -5.45300
H 1.35600 -1.75900 -5.96700
H 1.45200 -3.15700 -4.90200
H 2.71400 -0.52200 -4.79800
H 3.48700 -2.12100 -4.52900
H 2.49500 -1.30300 -3.24000
H 0.86700 -6.33300 -0.08400
H 0.40400 -5.64200 -1.68000
H -0.89100 -5.99900 -0.46300
H -1.28300 -3.58100 4.02800
H 0.69800 -4.47800 7.75500
H 0.83300 -2.61900 7.68000
H 2.00000 -3.75400 6.97600
Mg 7.89016 0.71310 0.59165
C 10.63663 -1.50876 1.22355
C 9.99364 3.28874 1.35063
C 5.38637 2.65902 0.48262
C 5.76617 -2.01941 1.00119
N 10.01796 0.75739 1.19394
C 10.97636 -0.14489 1.34130
C 12.39407 0.45122 1.55182
C 11.96777 1.88454 2.13725
C 10.58696 2.00938 1.49658
C 11.79610 1.89104 3.64716
C 13.18849 0.59354 0.20621
C 14.68349 0.87688 0.36890
H 15.61158 0.29281 -0.59545
N 7.80459 2.68601 0.39447
C 8.75780 3.57965 0.73223
C 8.20174 4.90263 0.40872
C 6.77970 4.72809 0.00616
C 6.59165 3.32266 0.30534
C 9.02640 6.15691 0.42039
C 5.75449 5.67307 -0.54353
O 4.51232 5.36177 -0.59782
C 6.23382 7.00820 -0.92972
N 5.86013 0.41912 0.93066
C 4.97917 1.42113 0.76392
C 3.55877 0.90933 0.79422
C 3.67622 -0.68547 0.77417
C 5.21327 -0.82671 0.82817
C 2.72108 1.34259 1.99711
C 2.90410 -1.43398 -0.34666
C 3.51479 -1.11868 -1.69315
N 8.13013 -1.41873 0.84809
C 7.10820 -2.37674 1.02683
C 7.76737 -3.67555 1.27386
C 9.13782 -3.37641 1.24432
C 9.31960 -1.98554 1.01647
C 7.10513 -4.90835 1.53413
C 10.47186 -3.91915 1.36465
O 10.94281 -5.05051 1.47401
C 11.49964 -2.71242 1.48245
C 12.63667 -2.97642 0.53378
O 12.44444 -2.99058 -0.69482
O 13.79540 -2.95241 1.21726
C 14.95364 -3.19824 0.31733
H 10.50134 4.14901 1.78773
H 4.48890 3.26642 0.34444
H 5.17487 -2.93673 1.04098
H 13.00674 -0.07739 2.27222
H 12.62734 2.67008 1.77775
H 11.87428 0.89868 4.06580
H 10.81183 2.30214 3.82954
H 12.50360 2.58894 4.10399
H 12.87604 1.51700 -0.29811
H 13.04995 -0.27244 -0.41145
H 15.02856 0.69387 1.39378
H 14.85281 1.94549 0.21589
H 9.99250 5.99854 0.91535
H 8.50646 6.87548 1.06318
H 9.14413 6.59287 -0.57397
H 6.68564 7.49303 -0.06759
H 5.37486 7.50747 -1.38226
H 7.02665 6.89261 -1.67716
H 3.01245 1.23253 -0.08338
H 3.28668 -1.13439 1.69968
H 1.79058 1.86985 1.71384
H 3.33409 1.96789 2.63252
H 2.43283 0.53900 2.67265
H 1.86781 -1.08963 -0.38756
H 2.88076 -2.51004 -0.21054
H 3.04870 -0.16498 -1.95828
H 3.26801 -1.89319 -2.41652
H 4.59358 -0.94515 -1.60511
H 7.61513 -5.66462 0.95237
H 6.04898 -4.85405 1.27844
H 7.26261 -4.99039 2.61290
H 11.83398 -2.66694 2.51962
H 15.50484 -4.04839 0.73099
H 15.49091 -2.23348 0.25156
H 14.74311 -3.55053 -0.68568

