%nproc=24
%mem=175gb
#p cam-b3lyp/Def2SVP td=(nstates=5)

TDDFT excited states in gaussian

0 1
Mg 0.00000 0.00000 0.00000
C -0.21700 -2.21800 2.80100
C -1.25500 2.44200 2.02600
C -0.24500 1.85000 -2.56400
C 0.14600 -2.82400 -2.03700
N -0.61700 -0.00900 2.12600
C -0.59400 -0.90800 3.10500
C -0.93600 -0.30900 4.50200
C -1.77300 0.96400 4.03200
C -1.15500 1.16800 2.66000
C -3.26300 0.68500 3.86300
C 0.34500 0.11000 5.29900
C 0.12400 0.39700 6.78700
H 1.16800 0.03300 7.73300
N -0.18500 1.96100 -0.15200
C -0.70300 2.80000 0.77700
C -0.62000 4.15600 0.19300
C -0.18700 4.01500 -1.22500
C -0.21400 2.58300 -1.38000
C -0.88700 5.40600 0.97400
C 0.18100 5.01300 -2.27700
O 0.30300 4.69000 -3.50800
C 0.31000 6.41400 -1.83700
N -0.26500 -0.41300 -2.02900
C -0.27900 0.56900 -2.93700
C -0.19600 0.02400 -4.33200
C 0.12400 -1.53300 -4.18000
C 0.08600 -1.63200 -2.63500
C -1.45100 0.20500 -5.19700
C 1.37300 -2.07000 -4.92300
C 2.62600 -1.49000 -4.30600
N 0.15000 -2.14400 0.30300
C 0.17300 -3.13600 -0.68800
C 0.17300 -4.43800 0.00400
C 0.13300 -4.11100 1.35800
C 0.08300 -2.69500 1.50200
C 0.14900 -5.71500 -0.62300
C 0.09600 -4.62900 2.71600
O 0.20800 -5.74700 3.22100
C -0.25500 -3.42800 3.70100
C 0.71700 -3.48200 4.84800
O 1.93100 -3.25500 4.66900
O 0.03800 -3.55600 6.00300
C 0.94300 -3.58300 7.18300
H -1.85900 3.22000 2.49700
H -0.21800 2.45300 -3.47400
H 0.27600 -3.74700 -2.60500
H -1.55400 -0.94900 5.13200
H -1.58500 1.83100 4.66500
H -3.48400 -0.37700 3.96900
H -3.51100 1.02700 2.85800
H -3.85200 1.30100 4.54300
H 0.66900 1.09600 4.96600
H 1.13000 -0.63900 5.18900
H -0.84400 0.02600 7.12500
H 0.06200 1.47700 6.92100
H -1.34400 5.18600 1.93800
H -1.65100 5.96300 0.43200
H 0.00700 6.02000 1.08400
H -0.63500 6.74400 -1.40500
H 0.66500 6.97000 -2.70400
H 1.04800 6.46600 -1.03600
H 0.60800 0.50100 -4.89100
H -0.69200 -2.15600 -4.54700
H -1.26700 0.74000 -6.12900
H -2.20400 0.71400 -4.59600
H -1.96700 -0.72000 -5.45300
H 1.35600 -1.75900 -5.96700
H 1.45200 -3.15700 -4.90200
H 2.71400 -0.52200 -4.79800
H 3.48700 -2.12100 -4.52900
H 2.49500 -1.30300 -3.24000
H 0.86700 -6.33300 -0.08400
H 0.40400 -5.64200 -1.68000
H -0.89100 -5.99900 -0.46300
H -1.28300 -3.58100 4.02800
H 0.69800 -4.47800 7.75500
H 0.83300 -2.61900 7.68000
H 2.00000 -3.75400 6.97600
Mg 13.14491 1.18733 1.00525
C 12.95067 -1.20894 3.66969
C 11.88879 3.49036 3.18534
C 12.87960 3.20247 -1.43119
C 13.28596 -1.49731 -1.21252
N 12.53809 1.03926 3.12707
C 12.56689 0.09296 4.05337
C 12.23870 0.58693 5.48789
C 11.38542 1.89193 5.10351
C 11.99411 2.18740 3.73426
C 9.90409 1.60890 4.91669
C 13.52756 0.96212 6.30035
C 13.30724 1.15623 7.80220
H 14.36401 0.74030 8.72019
N 12.95221 3.16245 0.98737
C 12.44261 3.93921 1.96627
C 12.50273 5.31837 1.45785
C 12.93670 5.27527 0.03499
C 12.91922 3.84585 -0.20275
C 12.24273 6.51682 2.32361
C 13.29431 6.34443 -0.95254
O 13.41291 6.09296 -2.20375
C 13.40985 7.71191 -0.42514
N 12.87723 0.90317 -1.03679
C 12.84763 1.94832 -1.88219
C 12.92317 1.48997 -3.31906
C 13.25474 -0.07319 -3.25451
C 13.22400 -0.27539 -1.72364
C 11.66169 1.70831 -4.15416
C 14.50317 -0.56081 -4.03957
C 15.75967 -0.00957 -3.40497
N 13.31009 -0.96049 1.17156
C 13.32604 -1.89899 0.11655
C 13.33583 -3.24305 0.72960
C 13.30136 -2.99154 2.10947
C 13.25177 -1.59011 2.33973
C 13.32437 -4.47928 0.02409
C 13.28493 -3.59318 3.42342
O 13.39759 -4.73970 3.85533
C 12.92945 -2.46913 4.48950
C 13.90742 -2.58167 5.62678
O 15.11567 -2.34857 5.44679
O 13.22839 -2.73194 6.77861
C 14.15493 -2.83694 7.93719
H 11.28988 4.23041 3.71687
H 12.89933 3.85586 -2.30650
H 13.42867 -2.38365 -1.83438
H 11.63360 -0.09327 6.07523
H 11.58178 2.70931 5.79249
H 9.68762 0.55173 4.95754
H 9.64821 2.01022 3.94483
H 9.31693 2.17905 5.64229
H 13.84237 1.97664 6.02397
H 14.30334 0.23901 6.13943
H 12.33683 0.76446 8.13047
H 13.24742 2.22762 8.00853
H 11.78496 6.23134 3.27878
H 11.47351 7.11333 1.82129
H 13.13204 7.13451 2.46596
H 12.46787 8.00279 0.03369
H 13.75889 8.31948 -1.26233
H 14.16265 7.71738 0.37103
H 13.72240 1.99730 -3.84531
H 12.43645 -0.68071 -3.66823
H 11.83951 2.31269 -5.06366
H 10.91396 2.17564 -3.52723
H 11.15763 0.79857 -4.47588
H 14.47952 -0.17945 -5.06337
H 14.58051 -1.64125 -4.10008
H 15.83455 0.99313 -3.83635
H 16.62159 -0.61861 -3.66994
H 15.63553 0.10594 -2.32197
H 14.04117 -5.12434 0.51460
H 13.56821 -4.33947 -1.02699
H 12.28201 -4.77614 0.16769
H 11.90228 -2.63900 4.81452
H 13.91383 -3.77014 8.45555
H 14.02859 -1.89714 8.50689
H 15.20824 -2.97873 7.72535

