%nproc=24
%mem=175gb
#p cam-b3lyp/Def2SVP td=(nstates=5)

TDDFT excited states in gaussian

0 1
Mg 15.76026 1.41405 1.20456
C 14.84836 4.03136 3.48428
C 17.20676 -0.18173 3.84950
C 16.96642 -0.68338 -0.84811
C 15.27400 3.69218 -1.38762
N 15.93848 1.95522 3.34176
C 15.49953 2.94490 4.10478
C 15.70281 2.72191 5.62744
C 16.92912 1.68744 5.55738
C 16.66235 1.08510 4.17945
C 18.28828 2.36648 5.52682
C 14.44575 2.07718 6.31019
C 14.45439 2.11524 7.83997
H 13.18573 2.30146 8.53876
N 16.47986 -0.41063 1.50671
C 17.00820 -0.89818 2.64883
C 17.40956 -2.28118 2.34818
C 17.22592 -2.51649 0.89023
C 16.89610 -1.17693 0.44650
C 17.83432 -3.25416 3.40945
C 17.34209 -3.74156 0.03472
O 17.37220 -3.66907 -1.24460
C 17.51348 -5.02000 0.74020
N 16.28078 1.54603 -0.80392
C 16.73360 0.47111 -1.47282
C 16.77985 0.73324 -2.95927
C 16.03213 2.13074 -3.17255
C 15.74903 2.49386 -1.69830
C 18.17520 0.80309 -3.57935
C 14.84894 2.14950 -4.17873
C 13.70007 1.32789 -3.63980
N 14.99512 3.42666 1.02575
C 14.90381 4.20316 -0.15018
C 14.42806 5.54357 0.24905
C 14.29656 5.46024 1.64342
C 14.68366 4.16598 2.08446
C 14.22346 6.64815 -0.62511
C 13.92843 6.17620 2.84366
O 13.43904 7.27973 3.08129
C 14.38989 5.32285 4.10272
C 13.24104 5.26654 5.07200
O 12.18897 4.67540 4.77151
O 13.65032 5.72818 6.26772
C 12.54869 5.68187 7.26575
H 17.88511 -0.65576 4.55944
H 17.27162 -1.40314 -1.61118
H 15.00375 4.42810 -2.14792
H 15.99373 3.60647 6.18124
H 16.84801 0.92588 6.32862
H 18.20084 3.43912 5.43776
H 18.80284 1.95620 4.66779
H 18.87692 2.07117 6.40011
H 14.46807 0.99169 6.14913
H 13.54195 2.52299 5.94273
H 15.21316 2.80401 8.23088
H 14.76599 1.13534 8.20972
H 18.03039 -2.74888 4.36320
H 18.80928 -3.65159 3.10716
H 17.13432 -4.08454 3.52411
H 18.40786 -4.97499 1.35706
H 17.48770 -5.78765 -0.03563
H 16.66738 -5.15933 1.42235
H 16.24789 -0.03673 -3.50448
H 16.71322 2.90215 -3.56098
H 18.32303 0.08049 -4.40401
H 18.90486 0.64171 -2.79699
H 18.46124 1.78057 -3.96397
H 15.14671 1.68537 -5.12216
H 14.49375 3.14835 -4.40921
H 13.97272 0.30683 -3.92299
H 12.76296 1.62922 -4.10355
H 13.66676 1.36854 -2.54486
H 13.28707 7.10571 -0.33474
H 14.20694 6.33332 -1.66644
H 15.10717 7.24798 -0.39159
H 15.26300 5.81667 4.53097
H 12.43777 6.69423 7.66639
H 12.82665 4.88484 7.98076
H 11.54751 5.48887 6.89854

