%nproc=24
%mem=175gb
#p cam-b3lyp/Def2SVP td=(nstates=5)

TDDFT excited states in gaussian

0 1
Mg 0.00000 0.00000 0.00000
C -0.21700 -2.21800 2.80100
C -1.25500 2.44200 2.02600
C -0.24500 1.85000 -2.56400
C 0.14600 -2.82400 -2.03700
N -0.61700 -0.00900 2.12600
C -0.59400 -0.90800 3.10500
C -0.93600 -0.30900 4.50200
C -1.77300 0.96400 4.03200
C -1.15500 1.16800 2.66000
C -3.26300 0.68500 3.86300
C 0.34500 0.11000 5.29900
C 0.12400 0.39700 6.78700
H 1.16800 0.03300 7.73300
N -0.18500 1.96100 -0.15200
C -0.70300 2.80000 0.77700
C -0.62000 4.15600 0.19300
C -0.18700 4.01500 -1.22500
C -0.21400 2.58300 -1.38000
C -0.88700 5.40600 0.97400
C 0.18100 5.01300 -2.27700
O 0.30300 4.69000 -3.50800
C 0.31000 6.41400 -1.83700
N -0.26500 -0.41300 -2.02900
C -0.27900 0.56900 -2.93700
C -0.19600 0.02400 -4.33200
C 0.12400 -1.53300 -4.18000
C 0.08600 -1.63200 -2.63500
C -1.45100 0.20500 -5.19700
C 1.37300 -2.07000 -4.92300
C 2.62600 -1.49000 -4.30600
N 0.15000 -2.14400 0.30300
C 0.17300 -3.13600 -0.68800
C 0.17300 -4.43800 0.00400
C 0.13300 -4.11100 1.35800
C 0.08300 -2.69500 1.50200
C 0.14900 -5.71500 -0.62300
C 0.09600 -4.62900 2.71600
O 0.20800 -5.74700 3.22100
C -0.25500 -3.42800 3.70100
C 0.71700 -3.48200 4.84800
O 1.93100 -3.25500 4.66900
O 0.03800 -3.55600 6.00300
C 0.94300 -3.58300 7.18300
H -1.85900 3.22000 2.49700
H -0.21800 2.45300 -3.47400
H 0.27600 -3.74700 -2.60500
H -1.55400 -0.94900 5.13200
H -1.58500 1.83100 4.66500
H -3.48400 -0.37700 3.96900
H -3.51100 1.02700 2.85800
H -3.85200 1.30100 4.54300
H 0.66900 1.09600 4.96600
H 1.13000 -0.63900 5.18900
H -0.84400 0.02600 7.12500
H 0.06200 1.47700 6.92100
H -1.34400 5.18600 1.93800
H -1.65100 5.96300 0.43200
H 0.00700 6.02000 1.08400
H -0.63500 6.74400 -1.40500
H 0.66500 6.97000 -2.70400
H 1.04800 6.46600 -1.03600
H 0.60800 0.50100 -4.89100
H -0.69200 -2.15600 -4.54700
H -1.26700 0.74000 -6.12900
H -2.20400 0.71400 -4.59600
H -1.96700 -0.72000 -5.45300
H 1.35600 -1.75900 -5.96700
H 1.45200 -3.15700 -4.90200
H 2.71400 -0.52200 -4.79800
H 3.48700 -2.12100 -4.52900
H 2.49500 -1.30300 -3.24000
H 0.86700 -6.33300 -0.08400
H 0.40400 -5.64200 -1.68000
H -0.89100 -5.99900 -0.46300
H -1.28300 -3.58100 4.02800
H 0.69800 -4.47800 7.75500
H 0.83300 -2.61900 7.68000
H 2.00000 -3.75400 6.97600
Mg 15.77489 1.42416 1.20160
C 16.52780 -0.72280 3.97698
C 15.43954 3.96601 3.45130
C 14.67125 3.23481 -1.15869
C 15.05232 -1.44372 -0.64199
N 15.98246 1.48896 3.40273
C 16.33202 0.62498 4.34384
C 16.55848 1.25573 5.74400
C 15.64527 2.56497 5.56850
C 15.71667 2.71101 4.04986
C 14.19360 2.34297 5.95926
C 18.06098 1.63268 5.99384
C 18.40752 1.96530 7.44677
H 19.71957 1.57591 7.95606
N 15.62135 3.39780 1.06100
C 15.51722 4.28029 2.07670
C 15.41012 5.60612 1.44833
C 15.29376 5.41961 -0.02354
C 15.16725 3.97787 -0.09737
C 15.50390 6.88582 2.22743
C 15.28353 6.38090 -1.17333
O 14.93289 6.01780 -2.35148
C 15.60607 7.78074 -0.86040
N 14.77538 0.98071 -0.56664
C 14.45624 1.95001 -1.44216
C 13.99433 1.36739 -2.75654
C 14.30092 -0.19943 -2.66336
C 14.82802 -0.26835 -1.21326
C 12.51878 1.57769 -3.09550
C 15.16828 -0.81536 -3.79517
C 16.57860 -0.27676 -3.71577
N 15.95417 -0.70723 1.50669
C 15.56838 -1.73197 0.61498
C 15.77933 -3.01752 1.31161
C 16.25526 -2.64768 2.57857
C 16.31615 -1.23101 2.67249
C 15.49078 -4.30727 0.78302
C 16.70993 -3.13331 3.86159
O 16.95372 -4.24300 4.33369
C 16.78676 -1.90567 4.86826
C 18.11052 -1.97043 5.57960
O 19.17325 -1.81550 4.95253
O 17.89663 -1.98696 6.90789
C 19.18041 -2.03979 7.65684
H 15.08831 4.77833 4.08821
H 14.38068 3.80922 -2.04135
H 14.94354 -2.38605 -1.18316
H 16.19859 0.65992 6.57422
H 16.09304 3.42711 6.05593
H 13.98970 1.30557 6.17919
H 13.60710 2.67236 5.11157
H 13.92138 3.00220 6.78850
H 18.26970 2.60250 5.52414
H 18.71246 0.85983 5.63479
H 17.61772 1.65301 8.14077
H 18.44474 3.05204 7.55459
H 15.42193 6.70667 3.30659
H 14.61425 7.47573 1.98168
H 16.39377 7.46723 1.97690
H 14.90160 8.15741 -0.12263
H 15.63520 8.29601 -1.82244
H 16.59760 7.81575 -0.39536
H 14.55440 1.78649 -3.58344
H 13.37822 -0.79751 -2.69109
H 12.36208 2.09234 -4.06228
H 12.05939 2.13438 -2.28953
H 11.91721 0.67071 -3.12204
H 14.77865 -0.52210 -4.77310
H 15.20047 -1.89955 -3.77326
H 16.50719 0.68031 -4.24113
H 17.27412 -0.94938 -4.21363
H 16.86042 -0.06302 -2.67820
H 16.32652 -4.94382 1.04156
H 15.33621 -4.27035 -0.29332
H 14.56812 -4.53722 1.32256
H 15.94658 -1.99454 5.55803
H 19.12999 -2.91180 8.31619
H 19.28625 -1.04956 8.13849
H 20.08115 -2.25270 7.09311

