%nproc=24
%mem=175gb
#p cam-b3lyp/Def2SVP td=(nstates=5)

TDDFT excited states in gaussian

0 1
Mg 31.53516 2.83206 2.40308
C 28.86786 3.41689 4.73172
C 33.69240 3.80863 4.85813
C 33.86328 2.76015 0.24853
C 29.16401 3.01139 -0.14470
N 31.20250 3.50259 4.48443
C 30.15057 3.62615 5.27973
C 30.49747 3.91624 6.76468
C 31.94738 4.57213 6.54920
C 32.32798 3.89688 5.23320
C 31.90060 6.07360 6.31957
C 30.58141 2.60714 7.62563
C 30.61019 2.83336 9.13882
H 29.93631 1.86569 10.00019
N 33.50364 2.74991 2.64161
C 34.21200 3.17003 3.71072
C 35.62290 2.90839 3.38657
C 35.70239 2.45161 1.97244
C 34.33187 2.66065 1.55048
C 36.72490 3.02055 4.39970
C 36.82878 1.92707 1.13440
O 36.72577 1.81530 -0.13828
C 38.08761 1.63621 1.83599
N 31.55550 3.08893 0.34009
C 32.69423 2.95440 -0.36213
C 32.41793 2.90951 -1.84606
C 30.82852 2.79840 -1.98396
C 30.43794 2.89226 -0.49264
C 32.91580 4.10907 -2.65201
C 30.27586 1.61132 -2.81947
C 30.56000 0.30584 -2.11210
N 29.38193 2.96875 2.28908
C 28.59356 3.05797 1.12093
C 27.19392 3.24798 1.55375
C 27.26870 3.27942 2.95443
C 28.62208 3.14049 3.36500
C 26.07224 3.41354 0.69320
C 26.51177 3.40920 4.17873
O 25.31494 3.46589 4.45821
C 27.52838 3.63082 5.38030
C 27.13527 2.70440 6.49820
O 27.21826 1.47169 6.35625
O 26.93496 3.42422 7.61718
C 26.55371 2.54817 8.75692
H 34.43458 4.31185 5.47846
H 34.61430 2.63014 -0.53412
H 28.35356 2.97796 -0.87596
H 29.83891 4.62288 7.25534
H 32.63409 4.28090 7.33975
H 30.88767 6.43477 6.22128
H 32.45505 6.24904 5.40696
H 32.44944 6.59315 7.11025
H 31.56893 2.14903 7.48533
H 29.78359 1.93504 7.37585
H 30.31913 3.85591 9.40834
H 31.64401 2.74954 9.48263
H 36.38612 3.53538 5.30722
H 37.48257 3.68823 3.97544
H 37.18876 2.05806 4.62581
H 38.44609 2.53943 2.32400
H 38.74272 1.18733 1.08684
H 37.88560 0.90854 2.62991
H 32.87177 2.03592 -2.29768
H 30.39952 3.68287 -2.47742
H 33.60098 3.82849 -3.47413
H 33.39880 4.79950 -1.97337
H 32.13434 4.72623 -3.09204
H 30.78491 1.55836 -3.78499
H 29.21200 1.68242 -3.01979
H 31.58934 0.08333 -2.40882
H 29.87548 -0.46970 -2.44974
H 30.55187 0.43795 -1.02392
H 25.27576 2.80419 1.09915
H 26.31021 3.12841 -0.32947
H 25.90811 4.48994 0.79161
H 27.46355 4.67887 5.67520
H 25.60469 2.92770 9.14808
H 27.42104 2.55681 9.44351
H 26.29438 1.51987 8.53377

