%nproc=24
%mem=175gb
#p cam-b3lyp/Def2SVP td=(nstates=5)

TDDFT excited states in gaussian

0 1
Mg 0.00000 0.00000 0.00000
C -0.21700 -2.21800 2.80100
C -1.25500 2.44200 2.02600
C -0.24500 1.85000 -2.56400
C 0.14600 -2.82400 -2.03700
N -0.61700 -0.00900 2.12600
C -0.59400 -0.90800 3.10500
C -0.93600 -0.30900 4.50200
C -1.77300 0.96400 4.03200
C -1.15500 1.16800 2.66000
C -3.26300 0.68500 3.86300
C 0.34500 0.11000 5.29900
C 0.12400 0.39700 6.78700
H 1.16800 0.03300 7.73300
N -0.18500 1.96100 -0.15200
C -0.70300 2.80000 0.77700
C -0.62000 4.15600 0.19300
C -0.18700 4.01500 -1.22500
C -0.21400 2.58300 -1.38000
C -0.88700 5.40600 0.97400
C 0.18100 5.01300 -2.27700
O 0.30300 4.69000 -3.50800
C 0.31000 6.41400 -1.83700
N -0.26500 -0.41300 -2.02900
C -0.27900 0.56900 -2.93700
C -0.19600 0.02400 -4.33200
C 0.12400 -1.53300 -4.18000
C 0.08600 -1.63200 -2.63500
C -1.45100 0.20500 -5.19700
C 1.37300 -2.07000 -4.92300
C 2.62600 -1.49000 -4.30600
N 0.15000 -2.14400 0.30300
C 0.17300 -3.13600 -0.68800
C 0.17300 -4.43800 0.00400
C 0.13300 -4.11100 1.35800
C 0.08300 -2.69500 1.50200
C 0.14900 -5.71500 -0.62300
C 0.09600 -4.62900 2.71600
O 0.20800 -5.74700 3.22100
C -0.25500 -3.42800 3.70100
C 0.71700 -3.48200 4.84800
O 1.93100 -3.25500 4.66900
O 0.03800 -3.55600 6.00300
C 0.94300 -3.58300 7.18300
H -1.85900 3.22000 2.49700
H -0.21800 2.45300 -3.47400
H 0.27600 -3.74700 -2.60500
H -1.55400 -0.94900 5.13200
H -1.58500 1.83100 4.66500
H -3.48400 -0.37700 3.96900
H -3.51100 1.02700 2.85800
H -3.85200 1.30100 4.54300
H 0.66900 1.09600 4.96600
H 1.13000 -0.63900 5.18900
H -0.84400 0.02600 7.12500
H 0.06200 1.47700 6.92100
H -1.34400 5.18600 1.93800
H -1.65100 5.96300 0.43200
H 0.00700 6.02000 1.08400
H -0.63500 6.74400 -1.40500
H 0.66500 6.97000 -2.70400
H 1.04800 6.46600 -1.03600
H 0.60800 0.50100 -4.89100
H -0.69200 -2.15600 -4.54700
H -1.26700 0.74000 -6.12900
H -2.20400 0.71400 -4.59600
H -1.96700 -0.72000 -5.45300
H 1.35600 -1.75900 -5.96700
H 1.45200 -3.15700 -4.90200
H 2.71400 -0.52200 -4.79800
H 3.48700 -2.12100 -4.52900
H 2.49500 -1.30300 -3.24000
H 0.86700 -6.33300 -0.08400
H 0.40400 -5.64200 -1.68000
H -0.89100 -5.99900 -0.46300
H -1.28300 -3.58100 4.02800
H 0.69800 -4.47800 7.75500
H 0.83300 -2.61900 7.68000
H 2.00000 -3.75400 6.97600
Mg 10.50475 0.95277 0.80417
C 12.71066 1.72554 3.52738
C 8.34526 -0.32805 3.11301
C 8.74497 -0.14505 -1.59695
C 13.25430 1.22964 -1.31928
N 10.62463 0.77916 3.00593
C 11.48392 1.16333 3.93781
C 10.96753 1.00564 5.39316
C 9.87902 -0.14726 5.13850
C 9.56427 0.13369 3.67062
C 10.45275 -1.55049 5.24388
C 10.29875 2.31736 5.93552
C 10.05079 2.33589 7.44546
H 10.19413 3.60197 8.15887
N 8.60894 0.36721 0.76428
C 7.88083 -0.10379 1.79834
C 6.55279 -0.41424 1.24690
C 6.60663 -0.24317 -0.23045
C 8.02548 -0.01554 -0.41792
C 5.37145 -0.74990 2.11014
C 5.55701 -0.29089 -1.29920
O 5.86393 -0.35085 -2.54219
C 4.16070 -0.35962 -0.84414
N 10.97051 0.38538 -1.14094
C 10.00920 -0.00490 -1.99621
C 10.53933 -0.09810 -3.40711
C 12.00202 0.54681 -3.35996
C 12.10381 0.83273 -1.84560
C 10.62320 -1.50675 -3.99454
C 12.29236 1.70605 -4.35219
C 11.46927 2.91930 -3.98352
N 12.56504 1.57316 1.00010
C 13.55129 1.58760 -0.01045
C 14.82458 1.97711 0.62942
C 14.49290 2.14118 1.98277
C 13.11483 1.85325 2.17643
C 16.08429 2.08772 -0.02404
C 14.99753 2.48217 3.29341
O 16.06974 2.89853 3.73015
C 13.89399 2.10547 4.37355
C 13.74076 3.27410 5.30806
O 13.29276 4.35852 4.89583
O 13.94133 2.85720 6.57153
C 13.78916 3.97862 7.53645
H 7.70007 -0.95802 3.72598
H 8.15978 -0.41449 -2.47924
H 14.13627 1.43346 -1.93023
H 11.71045 0.66503 6.10437
H 8.99506 0.00137 5.75323
H 11.52669 -1.53926 5.35641
H 10.17370 -2.05205 4.32648
H 9.95872 -2.10017 6.05017
H 9.26342 2.36710 5.57447
H 10.86872 3.18081 5.65230
H 10.59865 1.53901 7.96295
H 8.99944 2.10011 7.62739
H 5.67508 -0.96187 3.14274
H 4.96841 -1.70071 1.74491
H 4.58655 0.00799 2.06317
H 4.02596 -1.24280 -0.22422
H 3.55466 -0.29587 -1.74998
H 3.95785 0.50721 -0.20534
H 9.92436 0.47517 -4.08996
H 12.78142 -0.19347 -3.59308
H 10.05796 -1.62023 -4.93884
H 10.26723 -2.20812 -3.25165
H 11.63213 -1.86718 -4.18784
H 11.99176 1.42282 -5.36391
H 13.33949 1.98671 -4.39405
H 10.50187 2.71252 -4.45094
H 11.91796 3.82410 -4.38855
H 11.30776 2.97103 -2.90052
H 16.54571 2.99567 0.34095
H 15.97073 2.10571 -1.10596
H 16.56533 1.16932 0.32298
H 14.23567 1.20877 4.89198
H 14.71459 4.02698 8.11862
H 12.85518 3.77046 8.09153
H 13.74007 4.98342 7.13344

