%nproc=24
%mem=175gb
#p cam-b3lyp/Def2SVP td=(nstates=5)

TDDFT excited states in gaussian

0 1
Mg 13.13030 1.18589 1.00394
C 14.78552 3.06762 3.57267
C 11.94421 -0.85178 3.46882
C 12.03410 -0.74856 -1.25962
C 15.32440 2.63883 -1.28093
N 13.39914 1.20817 3.19927
C 13.99904 2.00711 4.06884
C 13.67647 1.69767 5.55537
C 13.27216 0.15161 5.39690
C 12.80768 0.16831 3.94203
C 14.45594 -0.79461 5.50952
C 12.47734 2.55235 6.09723
C 12.30641 2.52914 7.61776
H 11.84593 3.74372 8.28502
N 11.75346 -0.24082 1.08979
C 11.38177 -0.94860 2.17707
C 10.35004 -1.88845 1.71193
C 10.26073 -1.79103 0.22962
C 11.38504 -0.91905 -0.04545
C 9.51027 -2.70493 2.65086
C 9.32677 -2.39440 -0.77530
O 9.57901 -2.36495 -2.03162
C 8.15512 -3.10234 -0.23907
N 13.74114 0.81060 -0.94757
C 13.05772 -0.03872 -1.73466
C 13.51517 0.06015 -3.17040
C 14.48472 1.33077 -3.22586
C 14.49068 1.71008 -1.72870
C 14.24786 -1.16317 -3.72088
C 14.14243 2.43234 -4.26608
C 12.84957 3.11741 -3.88585
N 14.63985 2.73048 1.06334
C 15.45882 3.16421 -0.00214
C 16.40768 4.15158 0.55211
C 16.08749 4.20717 1.91698
C 15.02821 3.30236 2.19762
C 17.43238 4.81994 -0.17550
C 16.41181 4.81771 3.18614
O 17.16440 5.72108 3.54845
C 15.66782 4.01424 4.33823
C 15.00305 5.01254 5.24597
O 14.07216 5.72405 4.82908
O 15.42591 4.81112 6.50731
C 14.78600 5.77022 7.44670
H 11.70654 -1.68104 4.13570
H 11.62032 -1.31259 -2.09875
H 15.97519 3.20923 -1.94710
H 14.51680 1.79474 6.23227
H 12.44947 -0.11116 6.05682
H 15.39402 -0.26206 5.55985
H 14.42083 -1.41630 4.62447
H 14.31873 -1.47064 6.35833
H 11.53453 2.07858 5.79492
H 12.54837 3.56716 5.75703
H 13.18953 2.12286 8.12567
H 11.50730 1.82657 7.86644
H 9.91586 -2.68966 3.67001
H 9.60388 -3.75017 2.33689
H 8.45575 -2.42191 2.62723
H 8.48659 -3.90717 0.41273
H 7.56125 -3.38611 -1.11008
H 7.58205 -2.40765 0.38511
H 12.67538 0.22973 -3.83304
H 15.51574 1.04571 -3.48192
H 13.77392 -1.58442 -4.62752
H 14.30242 -1.90887 -2.93890
H 15.29755 -1.00332 -3.96131
H 13.97955 1.98632 -5.25030
H 14.92125 3.17956 -4.37603
H 12.08627 2.44625 -4.29082
H 12.79011 4.10361 -4.34184
H 12.72269 3.14227 -2.79730
H 17.41053 5.85576 0.13612
H 17.28499 4.72379 -1.24918
H 18.30958 4.26616 0.16964
H 16.41886 3.42146 4.86179
H 15.59333 6.28864 7.97316
H 14.08979 5.16804 8.06023
H 14.24287 6.60450 7.01841

