%nproc=24
%mem=175gb
#p cam-b3lyp/Def2SVP td=(nstates=5)

TDDFT excited states in gaussian

0 1
Mg 0.00000 0.00000 0.00000
C -0.21700 -2.21800 2.80100
C -1.25500 2.44200 2.02600
C -0.24500 1.85000 -2.56400
C 0.14600 -2.82400 -2.03700
N -0.61700 -0.00900 2.12600
C -0.59400 -0.90800 3.10500
C -0.93600 -0.30900 4.50200
C -1.77300 0.96400 4.03200
C -1.15500 1.16800 2.66000
C -3.26300 0.68500 3.86300
C 0.34500 0.11000 5.29900
C 0.12400 0.39700 6.78700
H 1.16800 0.03300 7.73300
N -0.18500 1.96100 -0.15200
C -0.70300 2.80000 0.77700
C -0.62000 4.15600 0.19300
C -0.18700 4.01500 -1.22500
C -0.21400 2.58300 -1.38000
C -0.88700 5.40600 0.97400
C 0.18100 5.01300 -2.27700
O 0.30300 4.69000 -3.50800
C 0.31000 6.41400 -1.83700
N -0.26500 -0.41300 -2.02900
C -0.27900 0.56900 -2.93700
C -0.19600 0.02400 -4.33200
C 0.12400 -1.53300 -4.18000
C 0.08600 -1.63200 -2.63500
C -1.45100 0.20500 -5.19700
C 1.37300 -2.07000 -4.92300
C 2.62600 -1.49000 -4.30600
N 0.15000 -2.14400 0.30300
C 0.17300 -3.13600 -0.68800
C 0.17300 -4.43800 0.00400
C 0.13300 -4.11100 1.35800
C 0.08300 -2.69500 1.50200
C 0.14900 -5.71500 -0.62300
C 0.09600 -4.62900 2.71600
O 0.20800 -5.74700 3.22100
C -0.25500 -3.42800 3.70100
C 0.71700 -3.48200 4.84800
O 1.93100 -3.25500 4.66900
O 0.03800 -3.55600 6.00300
C 0.94300 -3.58300 7.18300
H -1.85900 3.22000 2.49700
H -0.21800 2.45300 -3.47400
H 0.27600 -3.74700 -2.60500
H -1.55400 -0.94900 5.13200
H -1.58500 1.83100 4.66500
H -3.48400 -0.37700 3.96900
H -3.51100 1.02700 2.85800
H -3.85200 1.30100 4.54300
H 0.66900 1.09600 4.96600
H 1.13000 -0.63900 5.18900
H -0.84400 0.02600 7.12500
H 0.06200 1.47700 6.92100
H -1.34400 5.18600 1.93800
H -1.65100 5.96300 0.43200
H 0.00700 6.02000 1.08400
H -0.63500 6.74400 -1.40500
H 0.66500 6.97000 -2.70400
H 1.04800 6.46600 -1.03600
H 0.60800 0.50100 -4.89100
H -0.69200 -2.15600 -4.54700
H -1.26700 0.74000 -6.12900
H -2.20400 0.71400 -4.59600
H -1.96700 -0.72000 -5.45300
H 1.35600 -1.75900 -5.96700
H 1.45200 -3.15700 -4.90200
H 2.71400 -0.52200 -4.79800
H 3.48700 -2.12100 -4.52900
H 2.49500 -1.30300 -3.24000
H 0.86700 -6.33300 -0.08400
H 0.40400 -5.64200 -1.68000
H -0.89100 -5.99900 -0.46300
H -1.28300 -3.58100 4.02800
H 0.69800 -4.47800 7.75500
H 0.83300 -2.61900 7.68000
H 2.00000 -3.75400 6.97600
Mg 10.51715 0.95265 0.80409
C 10.19164 -0.49463 4.07189
C 9.27364 3.84194 2.12330
C 10.36725 2.11720 -2.14358
C 10.63658 -2.28973 -0.46808
N 9.85534 1.48176 2.84721
C 9.83527 0.86914 4.02137
C 9.48647 1.78994 5.22138
C 8.67956 2.92737 4.42511
C 9.32918 2.77179 3.05163
C 7.19584 2.62871 4.28831
C 10.76531 2.37397 5.91814
C 10.51429 3.02859 7.27837
H 11.53653 2.89786 8.31298
N 10.38026 2.82808 0.16960
C 9.86909 3.87979 0.84332
C 9.98003 5.03176 -0.06488
C 10.44687 4.54110 -1.39003
C 10.39516 3.10905 -1.17403
C 9.73282 6.44440 0.37869
C 10.85801 5.24411 -2.64818
O 10.99971 4.61467 -3.75568
C 10.99898 6.70526 -2.56661
N 10.29103 0.05418 -1.05708
C 10.31111 0.78587 -2.18498
C 10.40848 -0.09698 -3.40624
C 10.69454 -1.56903 -2.85052
C 10.62119 -1.28571 -1.33403
C 9.17415 -0.12442 -4.30738
C 11.94745 -2.29990 -3.40616
C 13.20318 -1.60309 -2.93395
N 10.61811 -1.04035 1.63223
C 10.63329 -2.25996 0.92062
C 10.59066 -3.34746 1.91961
C 10.52992 -2.67967 3.15203
C 10.51400 -1.27527 2.93547
C 10.56167 -4.74110 1.63144
C 10.46492 -2.84358 4.58647
O 10.53500 -3.80146 5.35541
C 10.11537 -1.43768 5.24042
C 11.06206 -1.21051 6.38703
O 12.28035 -1.06788 6.18204
O 10.35146 -0.98303 7.50670
C 11.24644 -0.74112 8.66959
H 8.68301 4.72168 2.38040
H 10.42639 2.46631 -3.17707
H 10.76942 -3.32781 -0.78017
H 8.84857 1.33720 5.97097
H 8.88201 3.91425 4.83308
H 6.94896 1.64070 4.64753
H 6.97484 2.71353 3.23237
H 6.60750 3.40694 4.78282
H 11.11496 3.24648 5.35139
H 11.52423 1.62193 6.01359
H 9.52566 2.77661 7.68092
H 10.47950 4.11207 7.14091
H 9.24430 6.47813 1.36033
H 8.99294 6.87023 -0.30769
H 10.63536 7.05867 0.35090
H 10.05470 7.14208 -2.25041
H 11.38500 7.01635 -3.53928
H 11.73218 6.94307 -1.78785
H 11.23408 0.20669 -4.03812
H 9.86981 -2.25917 -3.08153
H 9.39073 0.16447 -5.35319
H 8.42486 0.52854 -3.87990
H 8.65276 -1.07928 -4.34747
H 11.95921 -2.25458 -4.49793
H 11.99597 -3.34708 -3.12677
H 13.31647 -0.78532 -3.65193
H 14.05387 -2.28064 -2.96997
H 13.05619 -1.15496 -1.94440
H 11.24808 -5.21574 2.31996
H 10.83464 -4.93896 0.59698
H 9.50824 -4.95879 1.82683
H 9.07630 -1.47868 5.56939
H 10.96687 -1.46268 9.44345
H 11.13271 0.33129 8.91609
H 12.30018 -0.96173 8.54547

