%nproc=24
%mem=175gb
#p cam-b3lyp/Def2SVP td=(nstates=5)

TDDFT excited states in gaussian

0 1
Mg 0.00000 0.00000 0.00000
C -0.21700 -2.21800 2.80100
C -1.25500 2.44200 2.02600
C -0.24500 1.85000 -2.56400
C 0.14600 -2.82400 -2.03700
N -0.61700 -0.00900 2.12600
C -0.59400 -0.90800 3.10500
C -0.93600 -0.30900 4.50200
C -1.77300 0.96400 4.03200
C -1.15500 1.16800 2.66000
C -3.26300 0.68500 3.86300
C 0.34500 0.11000 5.29900
C 0.12400 0.39700 6.78700
H 1.16800 0.03300 7.73300
N -0.18500 1.96100 -0.15200
C -0.70300 2.80000 0.77700
C -0.62000 4.15600 0.19300
C -0.18700 4.01500 -1.22500
C -0.21400 2.58300 -1.38000
C -0.88700 5.40600 0.97400
C 0.18100 5.01300 -2.27700
O 0.30300 4.69000 -3.50800
C 0.31000 6.41400 -1.83700
N -0.26500 -0.41300 -2.02900
C -0.27900 0.56900 -2.93700
C -0.19600 0.02400 -4.33200
C 0.12400 -1.53300 -4.18000
C 0.08600 -1.63200 -2.63500
C -1.45100 0.20500 -5.19700
C 1.37300 -2.07000 -4.92300
C 2.62600 -1.49000 -4.30600
N 0.15000 -2.14400 0.30300
C 0.17300 -3.13600 -0.68800
C 0.17300 -4.43800 0.00400
C 0.13300 -4.11100 1.35800
C 0.08300 -2.69500 1.50200
C 0.14900 -5.71500 -0.62300
C 0.09600 -4.62900 2.71600
O 0.20800 -5.74700 3.22100
C -0.25500 -3.42800 3.70100
C 0.71700 -3.48200 4.84800
O 1.93100 -3.25500 4.66900
O 0.03800 -3.55600 6.00300
C 0.94300 -3.58300 7.18300
H -1.85900 3.22000 2.49700
H -0.21800 2.45300 -3.47400
H 0.27600 -3.74700 -2.60500
H -1.55400 -0.94900 5.13200
H -1.58500 1.83100 4.66500
H -3.48400 -0.37700 3.96900
H -3.51100 1.02700 2.85800
H -3.85200 1.30100 4.54300
H 0.66900 1.09600 4.96600
H 1.13000 -0.63900 5.18900
H -0.84400 0.02600 7.12500
H 0.06200 1.47700 6.92100
H -1.34400 5.18600 1.93800
H -1.65100 5.96300 0.43200
H 0.00700 6.02000 1.08400
H -0.63500 6.74400 -1.40500
H 0.66500 6.97000 -2.70400
H 1.04800 6.46600 -1.03600
H 0.60800 0.50100 -4.89100
H -0.69200 -2.15600 -4.54700
H -1.26700 0.74000 -6.12900
H -2.20400 0.71400 -4.59600
H -1.96700 -0.72000 -5.45300
H 1.35600 -1.75900 -5.96700
H 1.45200 -3.15700 -4.90200
H 2.71400 -0.52200 -4.79800
H 3.48700 -2.12100 -4.52900
H 2.49500 -1.30300 -3.24000
H 0.86700 -6.33300 -0.08400
H 0.40400 -5.64200 -1.68000
H -0.89100 -5.99900 -0.46300
H -1.28300 -3.58100 4.02800
H 0.69800 -4.47800 7.75500
H 0.83300 -2.61900 7.68000
H 2.00000 -3.75400 6.97600
Mg 7.88441 0.71447 0.60821
C 6.35816 -1.68327 2.79921
C 5.56907 2.96683 1.70397
C 8.91423 2.71264 -1.63103
C 9.29711 -1.96573 -1.11415
N 6.22938 0.54484 2.06572
C 5.78350 -0.39786 2.88235
C 4.71319 0.08444 3.89792
C 4.16080 1.35207 3.08131
C 5.40426 1.67033 2.25355
C 3.02821 1.00719 2.12860
C 5.34177 0.51443 5.26978
C 4.33574 0.70175 6.40757
H 4.73925 0.33182 7.76138
N 7.66495 2.67980 0.44129
C 6.67979 3.43631 0.96898
C 6.95893 4.81590 0.54122
C 8.09634 4.78851 -0.41809
C 8.25936 3.35920 -0.59293
C 6.23028 6.00394 1.09894
C 8.89561 5.86997 -1.07975
O 9.68229 5.62154 -2.06070
C 8.65994 7.24197 -0.60693
N 8.77680 0.41592 -1.24566
C 9.17475 1.45748 -1.99712
C 10.03302 1.00023 -3.15241
C 10.32969 -0.54763 -2.88095
C 9.48059 -0.74833 -1.60654
C 9.41945 1.16435 -4.54273
C 11.82011 -0.98410 -2.85245
C 12.51198 -0.37986 -1.65179
N 8.00616 -1.42431 0.88907
C 8.62370 -2.36312 0.03388
C 8.34531 -3.70456 0.58658
C 7.55949 -3.45236 1.72120
C 7.34517 -2.05382 1.85409
C 8.76046 -4.94139 0.01734
C 6.85366 -4.05192 2.83072
O 6.75312 -5.19200 3.28221
C 5.93875 -2.94185 3.50680
C 6.14684 -3.01158 4.99487
O 7.25081 -2.72860 5.49263
O 4.95728 -3.18807 5.59834
C 5.11038 -3.25237 7.07626
H 4.75280 3.68216 1.80828
H 9.38318 3.36479 -2.37147
H 9.78438 -2.84641 -1.53799
H 3.90991 -0.61940 4.07992
H 3.92412 2.17810 3.74690
H 2.86039 -0.05802 2.07106
H 3.32675 1.39583 1.16378
H 2.12234 1.55359 2.40643
H 5.72133 1.54073 5.18372
H 6.10497 -0.17597 5.57226
H 3.35643 0.27041 6.16706
H 4.13708 1.77006 6.52275
H 5.33773 5.70125 1.66031
H 5.83658 6.56700 0.24581
H 6.87857 6.65842 1.68549
H 7.61042 7.49410 -0.73876
H 9.38625 7.86215 -1.13583
H 8.85996 7.28019 0.46971
H 10.97205 1.53955 -3.17375
H 9.88783 -1.18945 -3.65727
H 10.04134 1.77407 -5.22506
H 8.43581 1.60116 -4.43233
H 9.20181 0.23384 -5.06424
H 12.34245 -0.60580 -3.73461
H 11.95472 -2.06048 -2.83541
H 12.77457 0.62435 -1.99777
H 13.40002 -0.95287 -1.39281
H 11.81651 -0.26778 -0.81190
H 9.11821 -5.55516 0.83331
H 9.53040 -4.79333 -0.73701
H 7.81766 -5.28121 -0.41959
H 4.90599 -3.15386 3.22747
H 4.65871 -4.19393 7.40359
H 4.66331 -2.31768 7.46387
H 6.11435 -3.35046 7.47234

