%nproc=24
%mem=175gb
#p cam-b3lyp/Def2SVP td=(nstates=5)

TDDFT excited states in gaussian

0 1
Mg 8.92778 0.80825 0.68612
C 6.55594 -1.86571 1.00763
C 6.31797 2.81661 -0.20270
C 11.03924 3.06233 -0.04075
C 11.42298 -1.61582 0.47746
N 6.76288 0.41122 0.46742
C 5.96778 -0.62738 0.67590
C 4.45183 -0.30257 0.59874
C 4.53292 1.00420 -0.33112
C 5.94539 1.46695 0.02026
C 4.48935 0.68909 -1.81710
C 3.83946 0.02992 2.00461
C 2.31006 0.05351 2.05061
H 1.64271 -0.41980 3.26019
N 8.69028 2.76554 0.45987
C 7.55677 3.41363 0.11869
C 7.91001 4.84066 0.06441
C 9.38244 4.96642 0.24010
C 9.77223 3.57110 0.20499
C 6.88339 5.92896 -0.05834
C 10.29099 6.14774 0.39893
O 11.56390 6.03655 0.29821
C 9.64185 7.45399 0.58290
N 10.91075 0.73542 0.06574
C 11.61549 1.86352 -0.13088
C 13.08573 1.56515 -0.30336
C 13.25558 0.01722 0.06084
C 11.77524 -0.34917 0.30524
C 13.65847 1.82578 -1.69635
C 14.29577 -0.33749 1.15850
C 13.83203 0.18784 2.49804
N 9.03465 -1.33755 0.91450
C 10.17476 -2.15615 0.75918
C 9.72739 -3.55701 0.90018
C 8.34325 -3.45653 1.10649
C 7.95223 -2.09066 1.07474
C 10.55418 -4.70994 0.78485
C 7.12240 -4.19596 1.33330
O 6.84801 -5.37735 1.54010
C 5.89150 -3.20657 1.15333
C 4.96188 -3.40486 2.31909
O 5.32232 -3.10992 3.47222
O 3.73359 -3.70256 1.85751
C 2.77332 -3.89753 2.97631
H 5.61068 3.47300 -0.71041
H 11.82574 3.80620 -0.18748
H 12.15557 -2.42449 0.52273
H 3.84807 -1.06349 0.11888
H 3.80146 1.74949 -0.02967
H 4.53020 -0.37354 -2.00498
H 5.35057 1.18284 -2.24788
H 3.61328 1.15627 -2.27599
H 4.05096 1.07904 2.24824
H 4.21311 -0.64299 2.75174
H 1.86377 -0.40634 1.16049
H 1.97767 1.09365 2.01015
H 5.90120 5.52610 -0.33474
H 7.17393 6.54754 -0.91439
H 6.82981 6.55979 0.83152
H 8.99626 7.65942 -0.26767
H 10.45358 8.16025 0.76775
H 8.99349 7.40136 1.46465
H 13.68292 2.15482 0.38129
H 13.58587 -0.57178 -0.80740
H 14.51146 2.53039 -1.69273
H 12.86249 2.19555 -2.32898
H 13.98739 0.93809 -2.23394
H 15.25048 0.15047 0.94738
H 14.48956 -1.40165 1.24219
H 14.15468 1.23311 2.47831
H 14.30969 -0.35743 3.30956
H 12.73794 0.18180 2.56581
H 10.27151 -5.37739 1.58803
H 11.60927 -4.44930 0.83621
H 10.26539 -5.05827 -0.21040
H 5.41363 -3.44766 0.20302
H 2.32883 -4.88915 2.84670
H 2.08861 -3.02955 2.93700
H 3.17997 -3.97728 3.97767

