%nproc=24
%mem=175gb
#p cam-b3lyp/Def2SVP td=(nstates=5)

TDDFT excited states in gaussian

0 1
Mg 0.00000 0.00000 0.00000
C -0.21700 -2.21800 2.80100
C -1.25500 2.44200 2.02600
C -0.24500 1.85000 -2.56400
C 0.14600 -2.82400 -2.03700
N -0.61700 -0.00900 2.12600
C -0.59400 -0.90800 3.10500
C -0.93600 -0.30900 4.50200
C -1.77300 0.96400 4.03200
C -1.15500 1.16800 2.66000
C -3.26300 0.68500 3.86300
C 0.34500 0.11000 5.29900
C 0.12400 0.39700 6.78700
H 1.16800 0.03300 7.73300
N -0.18500 1.96100 -0.15200
C -0.70300 2.80000 0.77700
C -0.62000 4.15600 0.19300
C -0.18700 4.01500 -1.22500
C -0.21400 2.58300 -1.38000
C -0.88700 5.40600 0.97400
C 0.18100 5.01300 -2.27700
O 0.30300 4.69000 -3.50800
C 0.31000 6.41400 -1.83700
N -0.26500 -0.41300 -2.02900
C -0.27900 0.56900 -2.93700
C -0.19600 0.02400 -4.33200
C 0.12400 -1.53300 -4.18000
C 0.08600 -1.63200 -2.63500
C -1.45100 0.20500 -5.19700
C 1.37300 -2.07000 -4.92300
C 2.62600 -1.49000 -4.30600
N 0.15000 -2.14400 0.30300
C 0.17300 -3.13600 -0.68800
C 0.17300 -4.43800 0.00400
C 0.13300 -4.11100 1.35800
C 0.08300 -2.69500 1.50200
C 0.14900 -5.71500 -0.62300
C 0.09600 -4.62900 2.71600
O 0.20800 -5.74700 3.22100
C -0.25500 -3.42800 3.70100
C 0.71700 -3.48200 4.84800
O 1.93100 -3.25500 4.66900
O 0.03800 -3.55600 6.00300
C 0.94300 -3.58300 7.18300
H -1.85900 3.22000 2.49700
H -0.21800 2.45300 -3.47400
H 0.27600 -3.74700 -2.60500
H -1.55400 -0.94900 5.13200
H -1.58500 1.83100 4.66500
H -3.48400 -0.37700 3.96900
H -3.51100 1.02700 2.85800
H -3.85200 1.30100 4.54300
H 0.66900 1.09600 4.96600
H 1.13000 -0.63900 5.18900
H -0.84400 0.02600 7.12500
H 0.06200 1.47700 6.92100
H -1.34400 5.18600 1.93800
H -1.65100 5.96300 0.43200
H 0.00700 6.02000 1.08400
H -0.63500 6.74400 -1.40500
H 0.66500 6.97000 -2.70400
H 1.04800 6.46600 -1.03600
H 0.60800 0.50100 -4.89100
H -0.69200 -2.15600 -4.54700
H -1.26700 0.74000 -6.12900
H -2.20400 0.71400 -4.59600
H -1.96700 -0.72000 -5.45300
H 1.35600 -1.75900 -5.96700
H 1.45200 -3.15700 -4.90200
H 2.71400 -0.52200 -4.79800
H 3.48700 -2.12100 -4.52900
H 2.49500 -1.30300 -3.24000
H 0.86700 -6.33300 -0.08400
H 0.40400 -5.64200 -1.68000
H -0.89100 -5.99900 -0.46300
H -1.28300 -3.58100 4.02800
H 0.69800 -4.47800 7.75500
H 0.83300 -2.61900 7.68000
H 2.00000 -3.75400 6.97600
Mg 7.87381 0.71207 0.59439
C 7.44445 -2.08380 -1.61418
C 7.75792 2.71686 -2.16278
C 8.69850 3.14773 2.45313
C 9.08106 -1.53028 2.97349
N 7.62834 0.25754 -1.55628
C 7.41201 -0.83619 -2.27134
C 7.06627 -0.57250 -3.76147
C 7.75526 0.86975 -3.91661
C 7.68171 1.33338 -2.46323
C 9.21821 0.79742 -4.32143
C 5.51906 -0.49993 -4.01228
C 5.10292 -0.55370 -5.48391
H 3.86543 -1.24624 -5.83244
N 7.70425 2.66732 0.29976
C 7.64868 3.30980 -0.88574
C 7.54599 4.74140 -0.56307
C 7.71142 4.90397 0.90694
C 8.07312 3.55189 1.28261
C 7.23343 5.78738 -1.59345
C 7.57995 6.08416 1.82130
O 8.00136 6.04876 3.03126
C 7.02846 7.31255 1.23106
N 8.95650 0.83082 2.36527
C 9.12470 2.00675 2.99521
C 9.69365 1.80741 4.37975
C 9.64632 0.23031 4.64071
C 9.11780 -0.23775 3.26703
C 11.11940 2.31564 4.59260
C 8.90699 -0.24953 5.91971
C 7.42660 0.03064 5.79586
N 8.04154 -1.43531 0.76374
C 8.60197 -2.16528 1.83479
C 8.59470 -3.58939 1.44200
C 8.04737 -3.58668 0.15014
C 7.75422 -2.25288 -0.24298
C 9.09760 -4.66966 2.22061
C 7.66079 -4.40783 -0.97457
O 7.59541 -5.61836 -1.18454
C 7.37035 -3.45940 -2.21655
C 6.06542 -3.88568 -2.83135
O 5.00035 -3.76499 -2.20075
O 6.26094 -4.16040 -4.13392
C 4.99298 -4.57720 -4.78995
H 7.96276 3.41384 -2.97589
H 8.90322 3.94055 3.17632
H 9.34995 -2.30144 3.69853
H 7.50740 -1.27248 -4.46089
H 7.16584 1.52242 -4.55533
H 9.58608 -0.21787 -4.32300
H 9.75445 1.39300 -3.59425
H 9.36752 1.29230 -5.28534
H 5.16092 0.50452 -3.75234
H 5.00779 -1.26708 -3.46392
H 5.92361 -0.88338 -6.13255
H 4.88691 0.46308 -5.82083
H 7.32883 5.39024 -2.61157
H 8.01784 6.54881 -1.52429
H 6.26393 6.26291 -1.43028
H 7.65164 7.62323 0.39584
H 6.92858 8.01582 2.06010
H 6.03830 7.08860 0.81870
H 9.08392 2.30517 5.12376
H 10.65473 -0.19489 4.75093
H 11.20299 3.04847 5.41725
H 11.47044 2.74624 3.66421
H 11.86157 1.54246 4.78384
H 9.25673 0.30908 6.79137
H 9.05234 -1.30328 6.13296
H 7.34762 1.07893 6.09907
H 6.85739 -0.61637 6.46025
H 7.09943 -0.03605 4.75175
H 8.37382 -5.47037 2.14635
H 9.25875 -4.37303 3.25492
H 10.03797 -4.86526 1.69839
H 8.20423 -3.56515 -2.91156
H 5.17638 -5.55400 -5.24811
H 4.71997 -3.74636 -5.46738
H 4.14702 -4.79924 -4.15003

