%nproc=24
%mem=175gb
#p cam-b3lyp/Def2SVP td=(nstates=5)

TDDFT excited states in gaussian

0 1
Mg 7.89162 0.71345 0.59369
C 10.46057 -1.45344 1.85231
C 9.66186 3.32210 1.89589
C 5.43599 2.59818 -0.10283
C 5.81585 -2.08031 0.41524
N 9.80065 0.79659 1.70765
C 10.71911 -0.08468 2.07390
C 12.02139 0.54152 2.64091
C 11.41997 1.94939 3.12572
C 10.23858 2.05487 2.16350
C 10.87833 1.91568 4.54516
C 13.12064 0.73564 1.53818
C 14.51905 1.05233 2.07287
H 15.67486 0.51476 1.36041
N 7.79831 2.68773 0.41462
C 8.61029 3.59664 0.99414
C 8.11245 4.91263 0.56461
C 6.84099 4.71220 -0.18234
C 6.62694 3.29579 0.03688
C 8.87014 6.18650 0.80242
C 5.95655 5.64405 -0.95411
O 4.77681 5.30317 -1.32132
C 6.47634 6.99957 -1.18621
N 5.85085 0.36080 0.41136
C 5.00916 1.34414 0.04731
C 3.64189 0.79641 -0.28575
C 3.80866 -0.79403 -0.30274
C 5.28760 -0.89803 0.13004
C 2.51887 1.17984 0.67768
C 3.36223 -1.53473 -1.59298
C 4.27860 -1.17232 -2.73942
N 8.12448 -1.41721 0.86593
C 7.11954 -2.40447 0.76835
C 7.73549 -3.69189 1.14990
C 9.06063 -3.35795 1.46768
C 9.25132 -1.95794 1.31572
C 7.06681 -4.94672 1.21624
C 10.33864 -3.86986 1.90737
O 10.80152 -4.99137 2.11154
C 11.26804 -2.64095 2.29774
C 12.61259 -2.85379 1.65789
O 12.73224 -2.84352 0.42008
O 13.56385 -2.81707 2.60875
C 14.91626 -3.01238 2.02169
H 10.01884 4.18416 2.46008
H 4.58313 3.18605 -0.44996
H 5.26114 -3.01281 0.29107
H 12.45145 0.01141 3.48222
H 12.12420 2.75952 2.95510
H 10.87990 0.91591 4.95334
H 9.86769 2.29758 4.48352
H 11.42874 2.61999 5.17550
H 12.91563 1.66273 0.98753
H 13.16611 -0.11860 0.89101
H 14.60395 0.85368 3.14818
H 14.68880 2.12818 1.98485
H 9.68724 6.04061 1.51968
H 8.18535 6.87635 1.30743
H 9.21810 6.64880 -0.12380
H 6.68490 7.47489 -0.23069
H 5.74215 7.48782 -1.82999
H 7.43317 6.92166 -1.71445
H 3.32132 1.12663 -1.26621
H 3.21505 -1.27444 0.48889
H 1.67251 1.69026 0.18047
H 2.93561 1.80499 1.45618
H 2.09614 0.35345 1.24651
H 2.35872 -1.21553 -1.88493
H 3.33824 -2.61398 -1.48509
H 3.86449 -0.22453 -3.09622
H 4.24280 -1.93533 -3.51438
H 5.29592 -0.97400 -2.38253
H 7.72796 -5.67594 0.76721
H 6.10621 -4.91277 0.70649
H 6.95366 -5.05043 2.29870
H 11.33261 -2.61181 3.38612
H 15.37274 -3.85808 2.54525
H 15.42369 -2.03319 2.10805
H 14.97232 -3.34586 0.99208

