%nproc=24
%mem=175gb
#p cam-b3lyp/Def2SVP td=(nstates=5)

TDDFT excited states in gaussian

0 1
Mg 10.51836 0.94679 0.80591
C 8.95976 -0.89261 3.46419
C 10.63353 3.61864 2.92312
C 11.47628 2.72071 -1.64420
C 9.26155 -1.44284 -1.39768
N 9.85188 1.20589 2.89898
C 9.32951 0.41911 3.82766
C 9.26989 1.04903 5.24512
C 9.27496 2.59773 4.82043
C 9.99569 2.48095 3.47894
C 7.88469 3.15726 4.56857
C 10.52590 0.68737 6.11325
C 10.39184 1.00865 7.60340
H 11.02030 0.11064 8.56833
N 11.42803 2.71035 0.77527
C 11.38591 3.66434 1.72890
C 12.20248 4.77751 1.22072
C 12.59492 4.46947 -0.18136
C 11.81390 3.27166 -0.41659
C 12.60262 5.94775 2.07151
C 13.51051 5.14865 -1.15430
O 13.51901 4.84075 -2.39846
C 14.32979 6.24880 -0.62520
N 10.21347 0.80013 -1.24540
C 10.78583 1.67251 -2.09351
C 10.65274 1.20928 -3.52463
C 10.08131 -0.28211 -3.44208
C 9.89049 -0.39576 -1.91366
C 9.74231 2.05426 -4.41541
C 10.89342 -1.38823 -4.16985
C 12.22415 -1.58904 -3.48122
N 9.48658 -0.94312 0.98396
C 9.02934 -1.76767 -0.06729
C 8.28670 -2.88650 0.54845
C 8.34420 -2.62079 1.92489
C 9.05401 -1.41037 2.14973
C 7.63240 -3.93733 -0.15423
C 7.95669 -3.08344 3.23809
O 7.41406 -4.09666 3.67703
C 8.22908 -1.91882 4.28492
C 8.94793 -2.51356 5.46478
O 10.09515 -2.97665 5.33815
O 8.25473 -2.24230 6.58561
C 8.93372 -2.80230 7.78444
H 10.51272 4.57857 3.42593
H 11.87875 3.23641 -2.51916
H 8.92334 -2.28099 -2.01069
H 8.37189 0.82035 5.80644
H 9.85801 3.19606 5.51571
H 7.12835 2.38722 4.60201
H 7.92261 3.60789 3.58545
H 7.67462 3.97309 5.26615
H 11.35020 1.36222 5.84896
H 10.79097 -0.34453 5.98849
H 9.35290 1.21345 7.88907
H 10.91500 1.94665 7.80459
H 12.02898 5.98048 3.00601
H 12.29842 6.85255 1.53424
H 13.67892 5.98888 2.25192
H 13.68009 7.01521 -0.20930
H 14.98249 6.54865 -1.44735
H 14.93592 5.86634 0.20362
H 11.61779 1.18915 -4.01592
H 9.07995 -0.36017 -3.89044
H 10.25216 2.44227 -5.31740
H 9.34526 2.86809 -3.82333
H 8.83758 1.55445 -4.75727
H 11.11736 -1.08146 -5.19449
H 10.37478 -2.33955 -4.22456
H 12.84622 -0.79820 -3.91097
H 12.62713 -2.57441 -3.70633
H 12.14337 -1.39673 -2.40505
H 7.86670 -4.85484 0.36901
H 7.95093 -3.97911 -1.19374
H 6.59119 -3.61859 -0.05646
H 7.26291 -1.49690 4.56434
H 8.20663 -3.44248 8.29356
H 9.31655 -1.92944 8.34596
H 9.74878 -3.49732 7.61991

