%nproc=24
%mem=175gb
#p cam-b3lyp/Def2SVP td=(nstates=5)

TDDFT excited states in gaussian

0 1
Mg 31.53765 2.84187 2.38655
C 34.29849 0.54917 2.36875
C 33.82762 5.36533 2.53746
C 29.13510 4.86027 2.85691
C 29.51496 0.18189 3.37598
N 33.74883 2.83211 2.43992
C 34.69085 1.90397 2.36590
C 36.13077 2.46052 2.20324
C 35.89970 3.91568 2.84198
C 34.40640 4.07130 2.56178
C 36.10976 3.95275 4.34658
C 36.56828 2.55618 0.69943
C 38.06328 2.79702 0.47870
H 38.70701 2.16911 -0.67187
N 31.45504 4.81286 2.16994
C 32.48438 5.68291 2.23885
C 31.89852 7.01643 2.03230
C 30.41713 6.87809 2.00005
C 30.27443 5.48420 2.36992
C 32.73121 8.24530 1.80882
C 29.31127 7.84416 1.70006
O 28.08735 7.56959 1.96360
C 29.71254 9.15756 1.17522
N 29.64935 2.61495 3.22631
C 28.77997 3.64012 3.25995
C 27.39954 3.17195 3.65446
C 27.46837 1.57423 3.64380
C 28.96640 1.38764 3.31747
C 26.89899 3.65044 5.01714
C 26.42294 0.83059 2.76816
C 26.68667 1.10465 1.30503
N 31.78054 0.70839 2.62595
C 30.81171 -0.21524 3.07579
C 31.47894 -1.52899 3.18208
C 32.80587 -1.27184 2.80577
C 32.95990 0.10889 2.50687
C 30.87178 -2.73672 3.62802
C 34.11383 -1.85244 2.60367
O 34.56873 -2.99549 2.61945
C 35.16841 -0.67544 2.43362
C 36.02633 -0.98951 1.23870
O 35.53384 -1.01852 0.09711
O 37.31901 -0.98894 1.61199
C 38.21006 -1.28468 0.45856
H 34.44955 6.21713 2.81408
H 28.24698 5.49203 2.93170
H 28.92946 -0.71638 3.58328
H 36.89015 1.92587 2.76115
H 36.46837 4.67483 2.31126
H 36.26492 2.96567 4.75615
H 35.21255 4.39634 4.75802
H 36.92598 4.63659 4.59652
H 36.16325 3.48003 0.26676
H 36.25864 1.68450 0.15635
H 38.64807 2.62096 1.38972
H 38.21583 3.85732 0.26302
H 33.78586 8.06623 2.05178
H 32.40590 8.98992 2.54338
H 32.60841 8.66073 0.80632
H 30.37684 9.64298 1.88623
H 28.78070 9.67482 0.93859
H 30.29106 9.00557 0.25716
H 26.66010 3.49667 2.93273
H 27.31055 1.15288 4.64749
H 25.94075 4.20067 4.96153
H 27.66640 4.26758 5.46521
H 26.76809 2.86737 5.76204
H 25.41806 1.20529 2.97789
H 26.40733 -0.24184 2.93136
H 26.19323 2.06737 1.14144
H 26.24820 0.32587 0.68432
H 27.75738 1.24704 1.11806
H 31.20172 -3.51770 2.95592
H 29.78693 -2.65491 3.64160
H 31.29090 -2.80531 4.63544
H 35.75159 -0.62261 3.35378
H 38.82549 -2.14398 0.74237
H 38.73797 -0.33780 0.23841
H 37.74759 -1.64728 -0.45198

