%nproc=24
%mem=175gb
#p cam-b3lyp/Def2SVP td=(nstates=5)

TDDFT excited states in gaussian

0 1
Mg 0.00000 0.00000 0.00000
C -0.21700 -2.21800 2.80100
C -1.25500 2.44200 2.02600
C -0.24500 1.85000 -2.56400
C 0.14600 -2.82400 -2.03700
N -0.61700 -0.00900 2.12600
C -0.59400 -0.90800 3.10500
C -0.93600 -0.30900 4.50200
C -1.77300 0.96400 4.03200
C -1.15500 1.16800 2.66000
C -3.26300 0.68500 3.86300
C 0.34500 0.11000 5.29900
C 0.12400 0.39700 6.78700
H 1.16800 0.03300 7.73300
N -0.18500 1.96100 -0.15200
C -0.70300 2.80000 0.77700
C -0.62000 4.15600 0.19300
C -0.18700 4.01500 -1.22500
C -0.21400 2.58300 -1.38000
C -0.88700 5.40600 0.97400
C 0.18100 5.01300 -2.27700
O 0.30300 4.69000 -3.50800
C 0.31000 6.41400 -1.83700
N -0.26500 -0.41300 -2.02900
C -0.27900 0.56900 -2.93700
C -0.19600 0.02400 -4.33200
C 0.12400 -1.53300 -4.18000
C 0.08600 -1.63200 -2.63500
C -1.45100 0.20500 -5.19700
C 1.37300 -2.07000 -4.92300
C 2.62600 -1.49000 -4.30600
N 0.15000 -2.14400 0.30300
C 0.17300 -3.13600 -0.68800
C 0.17300 -4.43800 0.00400
C 0.13300 -4.11100 1.35800
C 0.08300 -2.69500 1.50200
C 0.14900 -5.71500 -0.62300
C 0.09600 -4.62900 2.71600
O 0.20800 -5.74700 3.22100
C -0.25500 -3.42800 3.70100
C 0.71700 -3.48200 4.84800
O 1.93100 -3.25500 4.66900
O 0.03800 -3.55600 6.00300
C 0.94300 -3.58300 7.18300
H -1.85900 3.22000 2.49700
H -0.21800 2.45300 -3.47400
H 0.27600 -3.74700 -2.60500
H -1.55400 -0.94900 5.13200
H -1.58500 1.83100 4.66500
H -3.48400 -0.37700 3.96900
H -3.51100 1.02700 2.85800
H -3.85200 1.30100 4.54300
H 0.66900 1.09600 4.96600
H 1.13000 -0.63900 5.18900
H -0.84400 0.02600 7.12500
H 0.06200 1.47700 6.92100
H -1.34400 5.18600 1.93800
H -1.65100 5.96300 0.43200
H 0.00700 6.02000 1.08400
H -0.63500 6.74400 -1.40500
H 0.66500 6.97000 -2.70400
H 1.04800 6.46600 -1.03600
H 0.60800 0.50100 -4.89100
H -0.69200 -2.15600 -4.54700
H -1.26700 0.74000 -6.12900
H -2.20400 0.71400 -4.59600
H -1.96700 -0.72000 -5.45300
H 1.35600 -1.75900 -5.96700
H 1.45200 -3.15700 -4.90200
H 2.71400 -0.52200 -4.79800
H 3.48700 -2.12100 -4.52900
H 2.49500 -1.30300 -3.24000
H 0.86700 -6.33300 -0.08400
H 0.40400 -5.64200 -1.68000
H -0.89100 -5.99900 -0.46300
H -1.28300 -3.58100 4.02800
H 0.69800 -4.47800 7.75500
H 0.83300 -2.61900 7.68000
H 2.00000 -3.75400 6.97600
Mg 7.87835 0.70344 0.60592
C 6.52934 3.14305 2.86589
C 9.64294 -0.54586 3.24412
C 9.42249 -1.16641 -1.44024
C 6.92948 2.80389 -2.00817
N 7.98750 1.30602 2.73130
C 7.38330 2.20911 3.48874
C 7.65031 2.05508 5.01010
C 9.04776 1.26789 4.93048
C 8.87586 0.60201 3.56677
C 10.25447 2.18914 4.86346
C 6.54835 1.19817 5.72661
C 6.57530 1.26414 7.25523
H 5.30613 1.22141 7.97624
N 8.93285 -0.94829 0.91963
C 9.56242 -1.30788 2.05788
C 10.21133 -2.59614 1.76899
C 10.05077 -2.88739 0.31843
C 9.46781 -1.64149 -0.13763
C 10.82901 -3.45334 2.83535
C 10.38065 -4.08382 -0.52176
O 10.37519 -4.02953 -1.80232
C 10.80092 -5.29479 0.19825
N 8.33110 0.89527 -1.41412
C 8.96652 -0.08727 -2.07653
C 8.93781 0.15264 -3.56717
C 7.93742 1.38112 -3.78542
C 7.61588 1.71063 -2.31116
C 10.28462 0.47200 -4.21563
C 6.75509 1.15990 -4.76819
C 5.79020 0.14703 -4.19508
N 6.74589 2.53337 0.41375
C 6.49067 3.25810 -0.77103
C 5.77836 4.49233 -0.38151
C 5.68821 4.41041 1.01622
C 6.31887 3.21969 1.46783
C 5.35530 5.52335 -1.26703
C 5.21229 5.06567 2.21323
O 4.52838 6.06184 2.44482
C 5.84685 4.33634 3.47490
C 4.74543 4.08266 4.46739
O 3.81824 3.29949 4.19615
O 5.08067 4.63387 5.64813
C 4.02421 4.39937 6.66828
H 10.41005 -0.87166 3.94717
H 9.84463 -1.82950 -2.19892
H 6.51311 3.46255 -2.77334
H 7.77913 2.98813 5.54544
H 9.12407 0.51835 5.71389
H 9.96563 3.22461 4.76096
H 10.82249 1.86758 4.00033
H 10.90264 2.02492 5.72905
H 6.77148 0.13346 5.58054
H 5.57087 1.46001 5.37080
H 7.19762 2.08978 7.62127
H 7.07157 0.36674 7.63260
H 10.94262 -2.90351 3.77778
H 11.85606 -3.66612 2.51952
H 10.29947 -4.39811 2.97557
H 11.68114 -5.07197 0.79662
H 10.90681 -6.06721 -0.56596
H 10.00760 -5.57829 0.89889
H 8.55090 -0.71293 -4.09080
H 8.45488 2.25961 -4.19813
H 10.55172 -0.22447 -5.03272
H 11.04460 0.46415 -3.44562
H 10.37547 1.47884 -4.61964
H 7.11891 0.74329 -5.71065
H 6.21479 2.07019 -5.00575
H 6.24501 -0.80961 -4.46910
H 4.80554 0.25903 -4.64446
H 5.76818 0.20000 -3.10039
H 4.35462 5.80221 -0.96473
H 5.38078 5.19270 -2.30327
H 6.11438 6.28230 -1.05954
H 6.61871 4.99262 3.87878
H 3.73183 5.37987 7.05665
H 4.45887 3.68135 7.38888
H 3.07110 4.01558 6.32370

