%nproc=24
%mem=175gb
#p cam-b3lyp/Def2SVP td=(nstates=5)

TDDFT excited states in gaussian

0 1
Mg 15.77330 1.42611 1.19341
C 15.15233 4.37979 3.13485
C 14.93604 3.24565 -1.56755
C 15.87411 -1.26323 -0.48729
C 15.44582 -0.40979 4.13755
N 15.14371 3.53174 0.94401
C 15.00271 4.57625 1.74616
C 14.76246 5.92291 1.01243
C 14.15346 5.34545 -0.35671
C 14.80866 3.96582 -0.35296
C 12.64599 5.15842 -0.31317
C 16.09488 6.71235 0.76053
C 15.90781 8.16853 0.32888
H 16.87214 9.16168 0.79384
N 15.93149 1.14018 -0.76409
C 15.56380 1.99291 -1.74334
C 15.86734 1.30714 -3.00894
C 16.29108 -0.08518 -2.69812
C 16.02284 -0.13081 -1.27472
C 15.81994 1.99830 -4.34066
C 16.83426 -1.19638 -3.54451
O 16.91036 -2.39933 -3.10868
C 17.18728 -0.85290 -4.92976
N 15.46571 -0.56633 1.70129
C 15.62309 -1.54388 0.79159
C 15.62091 -2.90437 1.44693
C 15.67183 -2.62336 3.02047
C 15.60150 -1.08057 3.00442
C 14.42003 -3.79456 1.12779
C 16.81716 -3.30279 3.82001
C 18.14924 -2.71386 3.41492
N 15.55716 1.88134 3.29438
C 15.41066 0.96153 4.35579
C 15.18181 1.74817 5.58512
C 15.18816 3.08083 5.14641
C 15.38547 3.12098 3.73966
C 14.95488 1.21354 6.88466
C 15.06221 4.46228 5.55189
O 14.96994 5.04591 6.63106
C 14.90713 5.35926 4.24891
C 15.84668 6.52717 4.37447
O 17.07762 6.35013 4.38190
O 15.14844 7.67016 4.24638
C 16.03863 8.85678 4.35274
H 14.47528 3.65766 -2.46578
H 16.01115 -2.21692 -1.00224
H 15.43202 -0.90401 5.11132
H 14.04533 6.57919 1.49073
H 14.48869 5.92444 -1.21331
H 12.24661 5.33389 0.67468
H 12.46761 4.13527 -0.61713
H 12.16630 5.78565 -1.07001
H 16.58423 6.31184 -0.13661
H 16.73166 6.66998 1.62270
H 14.88262 8.51997 0.49746
H 16.03701 8.22866 -0.75450
H 15.31627 2.97039 -4.27164
H 15.16925 1.40061 -4.98814
H 16.80371 2.08086 -4.80762
H 16.30992 -0.46227 -5.43976
H 17.64030 -1.75391 -5.34787
H 17.92695 -0.04470 -4.91217
H 16.49853 -3.47192 1.16273
H 14.76055 -2.97422 3.52673
H 14.70416 -4.77136 0.69281
H 13.76447 -3.25569 0.45668
H 13.76459 -4.00562 1.97102
H 16.86401 -4.36852 3.58299
H 16.70319 -3.21677 4.89547
H 18.40078 -3.27278 2.50859
H 18.89120 -2.87220 4.19497
H 18.04423 -1.65960 3.13357
H 15.54544 1.80459 7.57196
H 15.22259 0.16011 6.93350
H 13.87611 1.36745 6.97323
H 13.86515 5.67641 4.19162
H 15.63545 9.48816 5.15054
H 16.07811 9.29265 3.33676
H 17.05113 8.69397 4.70316

