%nproc=24
%mem=175gb
#p cam-b3lyp/Def2SVP td=(nstates=5)

TDDFT excited states in gaussian

0 1
Mg 10.50995 0.93886 0.80597
C 8.23323 2.54405 3.06848
C 12.75315 0.83439 3.37341
C 12.68980 -0.06257 -1.27077
C 8.56986 2.18189 -1.80872
N 10.39155 1.63112 2.90335
C 9.45419 2.17069 3.66791
C 9.81752 2.24490 5.17524
C 11.41742 2.22431 5.03824
C 11.53922 1.48677 3.70637
C 12.02537 3.60752 4.87558
C 9.29373 1.00276 5.97820
C 9.34103 1.15434 7.50022
H 8.27771 0.54440 8.29381
N 12.24193 0.01756 1.10605
C 13.00780 0.06609 2.21617
C 14.18744 -0.76422 1.92771
C 14.13497 -1.17308 0.49775
C 13.00640 -0.38754 0.04022
C 15.18076 -1.16064 2.98109
C 14.97112 -2.10572 -0.32520
O 14.89353 -2.12860 -1.60437
C 15.95011 -2.92501 0.40406
N 10.73981 1.21768 -1.24141
C 11.74633 0.62863 -1.91064
C 11.55107 0.74587 -3.40346
C 10.07442 1.32790 -3.59920
C 9.68755 1.53952 -2.11902
C 12.55127 1.63906 -4.13708
C 9.11134 0.51340 -4.50572
C 8.77760 -0.80684 -3.84925
N 8.62808 1.98500 0.62653
C 8.01152 2.43365 -0.56202
C 6.80619 3.19149 -0.16795
C 6.81776 3.15040 1.23443
C 7.96124 2.43585 1.68318
C 5.90570 3.84323 -1.05704
C 6.12836 3.55810 2.43742
O 5.05716 4.11295 2.67912
C 7.08176 3.29203 3.68106
C 6.27698 2.59258 4.74202
O 5.83452 1.44679 4.54710
O 6.34682 3.29870 5.88521
C 5.57312 2.63914 6.97065
H 13.60718 0.95563 4.04035
H 13.35189 -0.47980 -2.03303
H 7.85953 2.51739 -2.56737
H 9.49880 3.15166 5.67523
H 11.87486 1.64662 5.83723
H 11.26861 4.36917 4.76005
H 12.64622 3.55379 3.99088
H 12.70319 3.82151 5.70690
H 9.99809 0.17074 5.85026
H 8.29922 0.74270 5.67169
H 9.49974 2.19561 7.80601
H 10.22251 0.62786 7.87415
H 15.04872 -0.57499 3.89923
H 16.17050 -0.86935 2.61309
H 15.17919 -2.23472 3.17862
H 16.63416 -2.27484 0.94425
H 16.38819 -3.59039 -0.34242
H 15.41864 -3.51773 1.15694
H 11.61184 -0.22541 -3.87888
H 10.08754 2.32375 -4.06605
H 13.09174 1.11492 -4.94777
H 13.24785 2.03863 -3.41206
H 12.12951 2.54241 -4.57445
H 9.59662 0.27405 -5.45512
H 8.19020 1.03737 -4.73798
H 9.62774 -1.43957 -4.12127
H 7.84581 -1.20642 -4.24440
H 8.77256 -0.71316 -2.75708
H 4.90661 3.62173 -0.70595
H 6.05008 3.51134 -2.08308
H 6.21051 4.88357 -0.91539
H 7.45449 4.25906 4.02091
H 4.85768 3.37696 7.34677
H 6.32651 2.25814 7.68548
H 4.91232 1.82647 6.69253

