%nproc=24
%mem=175gb
#p cam-b3lyp/Def2SVP td=(nstates=5)

TDDFT excited states in gaussian

0 1
Mg 0.00000 0.00000 0.00000
C -0.21700 -2.21800 2.80100
C -1.25500 2.44200 2.02600
C -0.24500 1.85000 -2.56400
C 0.14600 -2.82400 -2.03700
N -0.61700 -0.00900 2.12600
C -0.59400 -0.90800 3.10500
C -0.93600 -0.30900 4.50200
C -1.77300 0.96400 4.03200
C -1.15500 1.16800 2.66000
C -3.26300 0.68500 3.86300
C 0.34500 0.11000 5.29900
C 0.12400 0.39700 6.78700
H 1.16800 0.03300 7.73300
N -0.18500 1.96100 -0.15200
C -0.70300 2.80000 0.77700
C -0.62000 4.15600 0.19300
C -0.18700 4.01500 -1.22500
C -0.21400 2.58300 -1.38000
C -0.88700 5.40600 0.97400
C 0.18100 5.01300 -2.27700
O 0.30300 4.69000 -3.50800
C 0.31000 6.41400 -1.83700
N -0.26500 -0.41300 -2.02900
C -0.27900 0.56900 -2.93700
C -0.19600 0.02400 -4.33200
C 0.12400 -1.53300 -4.18000
C 0.08600 -1.63200 -2.63500
C -1.45100 0.20500 -5.19700
C 1.37300 -2.07000 -4.92300
C 2.62600 -1.49000 -4.30600
N 0.15000 -2.14400 0.30300
C 0.17300 -3.13600 -0.68800
C 0.17300 -4.43800 0.00400
C 0.13300 -4.11100 1.35800
C 0.08300 -2.69500 1.50200
C 0.14900 -5.71500 -0.62300
C 0.09600 -4.62900 2.71600
O 0.20800 -5.74700 3.22100
C -0.25500 -3.42800 3.70100
C 0.71700 -3.48200 4.84800
O 1.93100 -3.25500 4.66900
O 0.03800 -3.55600 6.00300
C 0.94300 -3.58300 7.18300
H -1.85900 3.22000 2.49700
H -0.21800 2.45300 -3.47400
H 0.27600 -3.74700 -2.60500
H -1.55400 -0.94900 5.13200
H -1.58500 1.83100 4.66500
H -3.48400 -0.37700 3.96900
H -3.51100 1.02700 2.85800
H -3.85200 1.30100 4.54300
H 0.66900 1.09600 4.96600
H 1.13000 -0.63900 5.18900
H -0.84400 0.02600 7.12500
H 0.06200 1.47700 6.92100
H -1.34400 5.18600 1.93800
H -1.65100 5.96300 0.43200
H 0.00700 6.02000 1.08400
H -0.63500 6.74400 -1.40500
H 0.66500 6.97000 -2.70400
H 1.04800 6.46600 -1.03600
H 0.60800 0.50100 -4.89100
H -0.69200 -2.15600 -4.54700
H -1.26700 0.74000 -6.12900
H -2.20400 0.71400 -4.59600
H -1.96700 -0.72000 -5.45300
H 1.35600 -1.75900 -5.96700
H 1.45200 -3.15700 -4.90200
H 2.71400 -0.52200 -4.79800
H 3.48700 -2.12100 -4.52900
H 2.49500 -1.30300 -3.24000
H 0.86700 -6.33300 -0.08400
H 0.40400 -5.64200 -1.68000
H -0.89100 -5.99900 -0.46300
H -1.28300 -3.58100 4.02800
H 0.69800 -4.47800 7.75500
H 0.83300 -2.61900 7.68000
H 2.00000 -3.75400 6.97600
Mg 31.52446 2.84234 2.40118
C 33.27857 4.60298 4.99006
C 30.19711 0.87070 4.84768
C 30.32303 0.99235 0.12049
C 33.81991 4.16606 0.13747
N 31.78037 2.83639 4.59816
C 32.42385 3.59152 5.47569
C 32.07313 3.29536 6.95853
C 31.57339 1.77863 6.78913
C 31.12003 1.83200 5.33164
C 32.69459 0.75924 6.90356
C 30.92673 4.22100 7.49797
C 30.74513 4.20078 9.01730
H 30.35776 5.43848 9.68851
N 30.06012 1.50466 2.47096
C 29.63782 0.81610 3.55209
C 28.55197 -0.05457 3.07564
C 28.47829 0.05589 1.59338
C 29.65692 0.85680 1.32982
C 27.65664 -0.82140 4.00503
C 27.51457 -0.48235 0.57960
O 27.77605 -0.46238 -0.67501
C 26.29737 -1.11792 1.10494
N 32.12275 2.43939 0.45130
C 31.39223 1.63880 -0.34452
C 31.86400 1.71607 -1.77694
C 32.91186 2.92344 -1.81962
C 32.93226 3.29393 -0.32038
C 32.52176 0.45192 -2.32980
C 32.64607 4.04969 -2.85576
C 31.39649 4.81279 -2.47945
N 33.12776 4.28857 2.47809
C 33.97907 4.67537 1.41991
C 34.98464 5.59823 1.98523
C 34.66000 5.66684 3.34846
C 33.54418 4.82905 3.61780
C 36.05389 6.20452 1.26744
C 35.01409 6.24924 4.62288
O 35.81971 7.10159 4.99464
C 34.21382 5.48827 5.76607
C 33.60746 6.52174 6.67534
O 32.72579 7.29254 6.25686
O 34.00888 6.28763 7.93805
C 33.42466 7.28026 8.87889
H 29.90358 0.05462 5.50854
H 29.87988 0.45979 -0.72418
H 34.50945 4.69780 -0.52167
H 32.91362 3.33589 7.64095
H 30.73167 1.56477 7.44268
H 33.66397 1.23144 6.96242
H 32.62602 0.14554 6.01490
H 32.50981 0.08883 7.74780
H 29.95791 3.80905 7.18744
H 31.06358 5.23106 7.16381
H 31.59774 3.73714 9.52821
H 29.90188 3.54861 9.25734
H 28.05597 -0.83692 5.02664
H 27.68631 -1.86884 3.68586
H 26.62217 -0.47249 3.97669
H 26.57346 -1.94535 1.75425
H 25.69231 -1.35928 0.22886
H 25.76521 -0.39176 1.72953
H 31.04072 1.94155 -2.44362
H 33.92451 2.57540 -2.07112
H 32.02797 0.06598 -3.24156
H 32.52440 -0.29974 -1.55164
H 33.58091 0.54664 -2.56310
H 32.46165 3.61987 -3.84338
H 33.47102 4.74699 -2.95695
H 30.59506 4.19307 -2.89266
H 31.40203 5.80310 -2.93034
H 31.26458 4.83999 -1.39156
H 36.09526 7.23804 1.58464
H 35.90750 6.12334 0.19238
H 36.89234 5.59487 1.61472
H 34.92280 4.84672 6.29081
H 34.25967 7.74415 9.41299
H 32.68812 6.71993 9.48494
H 32.93777 8.14925 8.45199

