%nproc=24
%mem=175gb
#p cam-b3lyp/Def2SVP td=(nstates=5)

TDDFT excited states in gaussian

0 1
Mg 8.93520 0.80690 0.66844
C 11.33182 -1.63386 -0.41691
C 11.16819 3.20358 -0.28251
C 7.04459 2.96509 2.02314
C 7.42485 -1.71316 2.54297
N 10.95552 0.67691 -0.22244
C 11.73853 -0.30314 -0.64759
C 12.99212 0.16933 -1.43172
C 13.11322 1.65001 -0.82198
C 11.65052 1.88065 -0.44782
C 13.94641 1.71186 0.44739
C 12.74962 0.20439 -2.98155
C 14.01577 0.35728 -3.82728
H 14.08178 -0.33271 -5.11259
N 8.84584 2.77364 0.41841
C 9.83961 3.58720 0.00391
C 9.27469 4.94552 0.00569
C 7.91695 4.88808 0.61227
C 7.89087 3.51350 1.07045
C 9.98017 6.12100 -0.60586
C 6.82784 5.90594 0.76718
O 5.82356 5.70551 1.53795
C 7.01826 7.18222 0.06266
N 7.57834 0.70450 2.24031
C 6.84756 1.77642 2.59370
C 5.75013 1.39452 3.55816
C 5.74479 -0.20437 3.59166
C 6.95177 -0.48085 2.66854
C 5.89808 1.93261 4.98117
C 4.39727 -0.91037 3.27791
C 4.02215 -0.68670 1.83062
N 9.17271 -1.33030 0.87833
C 8.45282 -2.18812 1.73855
C 9.04926 -3.53361 1.61065
C 10.09782 -3.35896 0.69494
C 10.16390 -1.99641 0.29670
C 8.64331 -4.69500 2.32653
C 11.17053 -4.01530 -0.01725
O 11.54323 -5.18091 -0.14449
C 12.09725 -2.90250 -0.67243
C 12.35025 -3.29207 -2.10307
O 11.41706 -3.32157 -2.92459
O 13.67755 -3.35353 -2.31489
C 13.97891 -3.72561 -3.72292
H 11.88174 4.02635 -0.33527
H 6.29893 3.64635 2.43950
H 6.94886 -2.57261 3.01988
H 13.89522 -0.39260 -1.22576
H 13.43054 2.36370 -1.57784
H 14.22243 0.72794 0.79647
H 13.32875 2.21392 1.18052
H 14.81750 2.35565 0.29554
H 12.23547 1.13837 -3.24248
H 12.20379 -0.66183 -3.30148
H 14.92590 0.17143 -3.24413
H 14.10338 1.40206 -4.13513
H 11.02971 5.89015 -0.82623
H 10.02898 6.89992 0.16274
H 9.45788 6.51817 -1.47887
H 7.94098 7.64744 0.40122
H 6.09572 7.74403 0.22124
H 7.14331 6.97649 -1.00629
H 4.78688 1.74183 3.20514
H 6.01379 -0.59200 4.58524
H 5.03022 2.53318 5.31314
H 6.80697 2.51729 5.03222
H 6.06674 1.17617 5.74573
H 3.59356 -0.47605 3.87754
H 4.41053 -1.97606 3.48068
H 3.54445 0.29746 1.84877
H 3.33044 -1.45498 1.49104
H 4.91544 -0.60794 1.20017
H 8.62390 -5.50896 1.61408
H 7.67210 -4.55337 2.79608
H 9.44911 -4.76213 3.06236
H 13.01885 -2.85957 -0.09071
H 14.62219 -4.61033 -3.68891
H 14.39930 -2.81478 -4.18918
H 13.15826 -4.08416 -4.33320

