%nproc=24
%mem=175gb
#p cam-b3lyp/Def2SVP td=(nstates=5)

TDDFT excited states in gaussian

0 1
Mg 0.00000 0.00000 0.00000
C -0.21700 -2.21800 2.80100
C -1.25500 2.44200 2.02600
C -0.24500 1.85000 -2.56400
C 0.14600 -2.82400 -2.03700
N -0.61700 -0.00900 2.12600
C -0.59400 -0.90800 3.10500
C -0.93600 -0.30900 4.50200
C -1.77300 0.96400 4.03200
C -1.15500 1.16800 2.66000
C -3.26300 0.68500 3.86300
C 0.34500 0.11000 5.29900
C 0.12400 0.39700 6.78700
H 1.16800 0.03300 7.73300
N -0.18500 1.96100 -0.15200
C -0.70300 2.80000 0.77700
C -0.62000 4.15600 0.19300
C -0.18700 4.01500 -1.22500
C -0.21400 2.58300 -1.38000
C -0.88700 5.40600 0.97400
C 0.18100 5.01300 -2.27700
O 0.30300 4.69000 -3.50800
C 0.31000 6.41400 -1.83700
N -0.26500 -0.41300 -2.02900
C -0.27900 0.56900 -2.93700
C -0.19600 0.02400 -4.33200
C 0.12400 -1.53300 -4.18000
C 0.08600 -1.63200 -2.63500
C -1.45100 0.20500 -5.19700
C 1.37300 -2.07000 -4.92300
C 2.62600 -1.49000 -4.30600
N 0.15000 -2.14400 0.30300
C 0.17300 -3.13600 -0.68800
C 0.17300 -4.43800 0.00400
C 0.13300 -4.11100 1.35800
C 0.08300 -2.69500 1.50200
C 0.14900 -5.71500 -0.62300
C 0.09600 -4.62900 2.71600
O 0.20800 -5.74700 3.22100
C -0.25500 -3.42800 3.70100
C 0.71700 -3.48200 4.84800
O 1.93100 -3.25500 4.66900
O 0.03800 -3.55600 6.00300
C 0.94300 -3.58300 7.18300
H -1.85900 3.22000 2.49700
H -0.21800 2.45300 -3.47400
H 0.27600 -3.74700 -2.60500
H -1.55400 -0.94900 5.13200
H -1.58500 1.83100 4.66500
H -3.48400 -0.37700 3.96900
H -3.51100 1.02700 2.85800
H -3.85200 1.30100 4.54300
H 0.66900 1.09600 4.96600
H 1.13000 -0.63900 5.18900
H -0.84400 0.02600 7.12500
H 0.06200 1.47700 6.92100
H -1.34400 5.18600 1.93800
H -1.65100 5.96300 0.43200
H 0.00700 6.02000 1.08400
H -0.63500 6.74400 -1.40500
H 0.66500 6.97000 -2.70400
H 1.04800 6.46600 -1.03600
H 0.60800 0.50100 -4.89100
H -0.69200 -2.15600 -4.54700
H -1.26700 0.74000 -6.12900
H -2.20400 0.71400 -4.59600
H -1.96700 -0.72000 -5.45300
H 1.35600 -1.75900 -5.96700
H 1.45200 -3.15700 -4.90200
H 2.71400 -0.52200 -4.79800
H 3.48700 -2.12100 -4.52900
H 2.49500 -1.30300 -3.24000
H 0.86700 -6.33300 -0.08400
H 0.40400 -5.64200 -1.68000
H -0.89100 -5.99900 -0.46300
H -1.28300 -3.58100 4.02800
H 0.69800 -4.47800 7.75500
H 0.83300 -2.61900 7.68000
H 2.00000 -3.75400 6.97600
Mg 7.88212 0.71841 0.60478
C 9.84488 -0.18454 3.47032
C 5.22206 1.04222 2.71519
C 6.02901 1.07621 -1.94578
C 10.34194 -0.75978 -1.37257
N 7.68440 0.43874 2.78994
C 8.51232 0.15496 3.78411
C 7.89708 0.31797 5.19990
C 6.34939 0.13634 4.81191
C 6.40593 0.59986 3.35773
C 5.88934 -1.31183 4.83407
C 8.17322 1.73612 5.81196
C 7.87160 1.86114 7.30700
H 8.72825 2.71956 8.12048
N 6.05778 1.48203 0.43975
C 5.11518 1.55304 1.40295
C 3.94326 2.18115 0.77347
C 4.21370 2.32487 -0.68287
C 5.46290 1.59845 -0.79194
C 2.75265 2.65133 1.55757
C 3.46467 2.99315 -1.79577
O 3.76346 2.79016 -3.02554
C 2.31196 3.81876 -1.40704
N 8.03754 0.04625 -1.35644
C 7.12116 0.38816 -2.27909
C 7.58387 0.02222 -3.66919
C 9.11284 -0.41909 -3.51080
C 9.24933 -0.31243 -1.97608
C 6.80077 -1.09498 -4.35841
C 10.15341 0.31720 -4.39836
C 10.26264 1.76387 -3.97340
N 9.84216 -0.12855 0.93488
C 10.69082 -0.71609 -0.02878
C 11.86376 -1.25126 0.69249
C 11.60315 -0.95594 2.03910
C 10.34641 -0.30212 2.15147
C 12.95438 -1.95108 0.10350
C 12.10049 -1.05811 3.39221
O 13.15268 -1.43764 3.90464
C 10.92586 -0.67606 4.39255
C 11.47487 0.29013 5.40624
O 11.85381 1.42269 5.05938
O 11.26091 -0.19835 6.64155
C 11.77826 0.72992 7.68197
H 4.27638 0.95141 3.25028
H 5.48039 1.27130 -2.87014
H 11.19836 -1.14782 -1.92814
H 8.19297 -0.44122 5.91394
H 5.71516 0.79628 5.39807
H 6.71177 -1.99344 4.99266
H 5.43107 -1.48969 3.87002
H 5.09499 -1.44372 5.57430
H 7.43943 2.44775 5.41210
H 9.18268 2.04396 5.62001
H 7.74352 0.88230 7.78492
H 6.89980 2.34649 7.42555
H 2.76688 2.26168 2.58293
H 1.86866 2.19016 1.10399
H 2.63565 3.73691 1.53533
H 1.59665 3.20683 -0.86268
H 1.96103 4.28389 -2.33029
H 2.65515 4.59417 -0.71308
H 7.53177 0.87742 -4.33177
H 9.25965 -1.47877 -3.76646
H 6.37165 -0.79087 -5.33178
H 6.02115 -1.42968 -3.68706
H 7.36197 -2.01087 -4.53562
H 9.82505 0.32382 -5.44061
H 11.13909 -0.13541 -4.37412
H 9.42663 2.23836 -4.49592
H 11.21521 2.18488 -4.28870
H 10.08328 1.87263 -2.89746
H 13.85598 -1.56015 0.55606
H 12.96679 -1.83042 -0.97773
H 12.71166 -2.97516 0.39949
H 10.57597 -1.59979 4.85502
H 12.47201 0.15693 8.30493
H 10.88371 1.14964 8.17934
H 12.41208 1.54596 7.35517

