%nproc=24
%mem=175gb
#p cam-b3lyp/Def2SVP td=(nstates=5)

TDDFT excited states in gaussian

0 1
Mg 0.00000 0.00000 0.00000
C -0.21700 -2.21800 2.80100
C -1.25500 2.44200 2.02600
C -0.24500 1.85000 -2.56400
C 0.14600 -2.82400 -2.03700
N -0.61700 -0.00900 2.12600
C -0.59400 -0.90800 3.10500
C -0.93600 -0.30900 4.50200
C -1.77300 0.96400 4.03200
C -1.15500 1.16800 2.66000
C -3.26300 0.68500 3.86300
C 0.34500 0.11000 5.29900
C 0.12400 0.39700 6.78700
H 1.16800 0.03300 7.73300
N -0.18500 1.96100 -0.15200
C -0.70300 2.80000 0.77700
C -0.62000 4.15600 0.19300
C -0.18700 4.01500 -1.22500
C -0.21400 2.58300 -1.38000
C -0.88700 5.40600 0.97400
C 0.18100 5.01300 -2.27700
O 0.30300 4.69000 -3.50800
C 0.31000 6.41400 -1.83700
N -0.26500 -0.41300 -2.02900
C -0.27900 0.56900 -2.93700
C -0.19600 0.02400 -4.33200
C 0.12400 -1.53300 -4.18000
C 0.08600 -1.63200 -2.63500
C -1.45100 0.20500 -5.19700
C 1.37300 -2.07000 -4.92300
C 2.62600 -1.49000 -4.30600
N 0.15000 -2.14400 0.30300
C 0.17300 -3.13600 -0.68800
C 0.17300 -4.43800 0.00400
C 0.13300 -4.11100 1.35800
C 0.08300 -2.69500 1.50200
C 0.14900 -5.71500 -0.62300
C 0.09600 -4.62900 2.71600
O 0.20800 -5.74700 3.22100
C -0.25500 -3.42800 3.70100
C 0.71700 -3.48200 4.84800
O 1.93100 -3.25500 4.66900
O 0.03800 -3.55600 6.00300
C 0.94300 -3.58300 7.18300
H -1.85900 3.22000 2.49700
H -0.21800 2.45300 -3.47400
H 0.27600 -3.74700 -2.60500
H -1.55400 -0.94900 5.13200
H -1.58500 1.83100 4.66500
H -3.48400 -0.37700 3.96900
H -3.51100 1.02700 2.85800
H -3.85200 1.30100 4.54300
H 0.66900 1.09600 4.96600
H 1.13000 -0.63900 5.18900
H -0.84400 0.02600 7.12500
H 0.06200 1.47700 6.92100
H -1.34400 5.18600 1.93800
H -1.65100 5.96300 0.43200
H 0.00700 6.02000 1.08400
H -0.63500 6.74400 -1.40500
H 0.66500 6.97000 -2.70400
H 1.04800 6.46600 -1.03600
H 0.60800 0.50100 -4.89100
H -0.69200 -2.15600 -4.54700
H -1.26700 0.74000 -6.12900
H -2.20400 0.71400 -4.59600
H -1.96700 -0.72000 -5.45300
H 1.35600 -1.75900 -5.96700
H 1.45200 -3.15700 -4.90200
H 2.71400 -0.52200 -4.79800
H 3.48700 -2.12100 -4.52900
H 2.49500 -1.30300 -3.24000
H 0.86700 -6.33300 -0.08400
H 0.40400 -5.64200 -1.68000
H -0.89100 -5.99900 -0.46300
H -1.28300 -3.58100 4.02800
H 0.69800 -4.47800 7.75500
H 0.83300 -2.61900 7.68000
H 2.00000 -3.75400 6.97600
Mg 15.77109 1.42431 1.20573
C 15.07745 -0.85043 3.89339
C 14.10366 3.80583 2.98974
C 15.97181 3.32205 -1.32917
C 16.35399 -1.35640 -0.81257
N 14.76545 1.36438 3.17483
C 14.61943 0.46187 4.13322
C 14.01678 1.01595 5.45207
C 13.24697 2.28942 4.84832
C 14.10780 2.53096 3.61005
C 11.83150 1.97653 4.39237
C 15.12169 1.44664 6.47954
C 14.61347 1.70586 7.89949
H 15.47461 1.34777 9.02318
N 15.57461 3.39353 1.05692
C 14.88072 4.20662 1.88074
C 15.03061 5.56187 1.32845
C 15.73229 5.46023 0.02001
C 15.76910 4.02134 -0.14829
C 14.60118 6.79465 2.06957
C 16.26858 6.48831 -0.92953
O 16.62876 6.18176 -2.12080
C 16.27220 7.87998 -0.45546
N 15.90574 1.04336 -0.83365
C 16.03474 2.04829 -1.71762
C 16.38980 1.52599 -3.08930
C 16.71119 -0.02758 -2.88753
C 16.38552 -0.16013 -1.38362
C 15.31286 1.68751 -4.16192
C 18.09075 -0.53221 -3.39234
C 19.19741 0.06575 -2.55381
N 15.91274 -0.71103 1.50290
C 16.13800 -1.69637 0.51677
C 16.03622 -3.01077 1.18343
C 15.73364 -2.69707 2.51705
C 15.63264 -1.28746 2.66640
C 16.16849 -4.27794 0.54869
C 15.46624 -3.23829 3.83017
O 15.49939 -4.36212 4.32980
C 14.90473 -2.07207 4.75268
C 15.64440 -2.11826 6.06160
O 16.86332 -1.87597 6.10766
O 14.75588 -2.22572 7.06627
C 15.44093 -2.26417 8.38576
H 13.40904 4.56053 3.35962
H 16.15717 3.93503 -2.21425
H 16.61938 -2.26802 -1.35219
H 13.31310 0.35449 5.94307
H 13.30159 3.14018 5.52255
H 11.61704 0.91927 4.44089
H 11.76657 2.32928 3.37139
H 11.11173 2.57055 4.96282
H 15.47849 2.45198 6.22123
H 15.91792 0.72836 6.50621
H 13.60001 1.31532 8.05227
H 14.50889 2.78455 8.03912
H 13.96858 6.54640 2.93073
H 13.94059 7.35630 1.40021
H 15.44263 7.43114 2.35156
H 15.25758 8.17769 -0.20174
H 16.77349 8.45375 -1.23736
H 16.85641 7.93279 0.47002
H 17.27305 2.02041 -3.47468
H 15.99193 -0.66525 -3.42221
H 15.66021 2.25228 -5.04761
H 14.45526 2.17198 -3.71432
H 14.88572 0.75676 -4.53132
H 18.26382 -0.19836 -4.41838
H 18.18430 -1.61304 -3.38525
H 19.34893 1.04870 -3.00982
H 20.09768 -0.54208 -2.61788
H 18.86514 0.22874 -1.52198
H 16.78021 -4.88938 1.19865
H 16.61061 -4.18270 -0.44087
H 15.11971 -4.58315 0.50207
H 13.83499 -2.24193 4.88074
H 15.10910 -3.17616 8.89157
H 15.20141 -1.30129 8.87489
H 16.51609 -2.40005 8.38851

