%nproc=24
%mem=175gb
#p cam-b3lyp/Def2SVP td=(nstates=5)

TDDFT excited states in gaussian

0 1
Mg 7.88994 0.71741 0.59624
C 7.26995 3.07982 3.22563
C 6.95513 3.14890 -1.60570
C 7.99224 -1.46538 -1.70428
C 7.66535 -1.80095 2.99481
N 7.22053 2.80452 0.89307
C 7.08271 3.61285 1.93324
C 6.80265 5.09430 1.56388
C 6.16918 4.86314 0.10644
C 6.84640 3.54072 -0.24748
C 4.66646 4.63834 0.13212
C 8.11551 5.95046 1.49037
C 7.89435 7.46383 1.43975
H 8.85382 8.33055 2.11848
N 8.00401 0.93184 -1.37342
C 7.59841 1.99348 -2.10121
C 7.88140 1.65153 -3.50376
C 8.33510 0.23525 -3.55892
C 8.10309 -0.16949 -2.18690
C 7.78979 2.65155 -4.61955
C 8.87490 -0.61785 -4.66664
O 8.98117 -1.88951 -4.54652
C 9.18780 0.06761 -5.92907
N 7.62719 -1.34495 0.59672
C 7.77763 -2.06129 -0.53118
C 7.81365 -3.54188 -0.23631
C 7.89913 -3.66083 1.35621
C 7.80360 -2.16463 1.72722
C 6.61970 -4.35041 -0.74343
C 9.07477 -4.49295 1.93769
C 10.38672 -3.79277 1.66581
N 7.71879 0.62988 2.74824
C 7.61355 -0.52839 3.54914
C 7.40269 -0.07811 4.94026
C 7.37668 1.32165 4.84809
C 7.53829 1.71540 3.49224
C 7.21677 -0.92454 6.06947
C 7.23861 2.55539 5.58804
O 7.16381 2.84951 6.78036
C 7.03677 3.74518 4.55361
C 7.96023 4.86513 4.94788
O 9.19366 4.71869 4.88620
O 7.24071 5.98849 5.12321
C 8.11405 7.13027 5.50456
H 6.46561 3.76162 -2.36322
H 8.13177 -2.25743 -2.44364
H 7.68371 -2.52243 3.81445
H 6.08715 5.59490 2.20516
H 6.47365 5.64449 -0.58505
H 4.28899 4.55336 1.14031
H 4.49708 3.71959 -0.41399
H 4.15807 5.42379 -0.43440
H 8.58880 5.79692 0.51202
H 8.77412 5.70846 2.30172
H 6.86814 7.73974 1.71125
H 7.99559 7.79485 0.40331
H 7.27240 3.56456 -4.29996
H 7.13292 2.22004 -5.38256
H 8.76019 2.86930 -5.07075
H 8.29186 0.55380 -6.30771
H 9.64474 -0.69068 -6.56787
H 9.91457 0.86185 -5.72511
H 8.69296 -4.00143 -0.67074
H 7.00648 -4.14656 1.77702
H 6.90862 -5.18155 -1.41409
H 5.93906 -3.67571 -1.24548
H 5.98890 -4.77918 0.03339
H 9.13287 -5.46471 1.44123
H 8.98620 -4.68017 3.00263
H 10.62462 -4.10257 0.64380
H 11.15029 -4.12430 2.36659
H 10.25779 -2.70421 1.65872
H 7.81464 -0.51069 6.87058
H 7.50254 -1.95082 5.84841
H 6.13820 -0.82110 6.21527
H 5.98872 4.04381 4.59822
H 7.72070 7.53398 6.44264
H 8.12124 7.80634 4.62898
H 9.13743 6.90737 5.78287

