%nproc=24
%mem=175gb
#p cam-b3lyp/Def2SVP td=(nstates=5)

TDDFT excited states in gaussian

0 1
Mg 15.77475 1.42315 1.19252
C 18.34371 -0.74373 2.45115
C 17.54500 4.03180 2.49472
C 13.31913 3.30788 0.49601
C 13.69899 -1.37061 1.01407
N 17.68379 1.50629 2.30648
C 18.60225 0.62502 2.67273
C 19.90453 1.25122 3.23974
C 19.30311 2.65909 3.72455
C 18.12172 2.76457 2.76233
C 18.76147 2.62538 5.14400
C 21.00377 1.44534 2.13701
C 22.40219 1.76203 2.67170
H 23.55800 1.22446 1.95924
N 15.68144 3.39743 1.01345
C 16.49343 4.30634 1.59297
C 15.99559 5.62233 1.16344
C 14.72413 5.42190 0.41649
C 14.51008 4.00549 0.63571
C 16.75328 6.89620 1.40125
C 13.83969 6.35375 -0.35527
O 12.65995 6.01287 -0.72249
C 14.35948 7.70927 -0.58738
N 13.73398 1.07050 1.01019
C 12.89230 2.05385 0.64614
C 11.52503 1.50611 0.31308
C 11.69180 -0.08433 0.29610
C 13.17074 -0.18833 0.72887
C 10.40201 1.88954 1.27651
C 11.24537 -0.82503 -0.99415
C 12.16174 -0.46262 -2.14059
N 16.00762 -0.70751 1.46476
C 15.00268 -1.69477 1.36718
C 15.61863 -2.98219 1.74873
C 16.94377 -2.64825 2.06651
C 17.13446 -1.24824 1.91455
C 14.94995 -4.23702 1.81507
C 18.22178 -3.16016 2.50620
O 18.68466 -4.28167 2.71038
C 19.15118 -1.93125 2.89658
C 20.49573 -2.14409 2.25673
O 20.61538 -2.13382 1.01891
O 21.44699 -2.10737 3.20758
C 22.79940 -2.30268 2.62052
H 17.90198 4.89386 3.05891
H 12.46627 3.89575 0.14887
H 13.14428 -2.30311 0.88990
H 20.33459 0.72111 4.08105
H 20.00734 3.46922 3.55394
H 18.76303 1.62561 5.55217
H 17.75082 3.00728 5.08236
H 19.31187 3.32969 5.77433
H 20.79876 2.37243 1.58637
H 21.04925 0.59110 1.48984
H 22.48709 1.56338 3.74701
H 22.57194 2.83788 2.58368
H 17.57038 6.75031 2.11851
H 16.06849 7.58605 1.90626
H 17.10124 7.35850 0.47504
H 14.56804 8.18459 0.36814
H 13.62529 8.19752 -1.23116
H 15.31631 7.63136 -1.11562
H 11.20446 1.83633 -0.66738
H 11.09819 -0.56474 1.08772
H 9.55565 2.39996 0.77930
H 10.81875 2.51469 2.05501
H 9.97928 1.06315 1.84534
H 10.24186 -0.50583 -1.28610
H 11.22138 -1.90428 -0.88626
H 11.74763 0.48517 -2.49738
H 12.12594 -1.22563 -2.91555
H 13.17906 -0.26430 -1.78370
H 15.61110 -4.96624 1.36605
H 13.98934 -4.20307 1.30532
H 14.83680 -4.34073 2.89753
H 19.21575 -1.90211 3.98495
H 23.25588 -3.14838 3.14408
H 23.30683 -1.32349 2.70688
H 22.85546 -2.63616 1.59091

