%nproc=24
%mem=175gb
#p cam-b3lyp/Def2SVP td=(nstates=5)

TDDFT excited states in gaussian

0 1
Mg 13.14660 1.17617 0.99624
C 13.21343 1.15571 -2.59182
C 12.57658 -2.18389 0.85594
C 12.63471 1.23271 4.12709
C 12.58107 4.61091 0.82773
N 12.94272 -0.22018 -0.70696
C 13.04814 -0.12472 -2.02382
C 13.05259 -1.48637 -2.76911
C 12.28310 -2.36588 -1.66764
C 12.64751 -1.56642 -0.41834
C 10.77196 -2.34146 -1.82641
C 14.50461 -2.02462 -3.02197
C 14.59578 -3.18863 -4.01117
H 15.75854 -3.26461 -4.89134
N 13.16183 -0.29619 2.32684
C 12.93207 -1.60555 2.09428
C 13.03831 -2.27111 3.40191
C 13.18653 -1.22506 4.45001
C 12.97459 -0.02866 3.66021
C 13.07479 -3.76403 3.55450
C 13.45950 -1.29124 5.92219
O 13.31074 -0.26918 6.68120
C 13.81582 -2.61060 6.46422
N 12.46682 2.65721 2.28726
C 12.38637 2.43666 3.61120
C 12.13858 3.72194 4.36424
C 12.31090 4.89118 3.28685
C 12.55118 4.03703 2.02269
C 10.77110 3.84648 5.03571
C 13.32902 6.01467 3.62431
C 14.73402 5.45670 3.61858
N 13.11468 2.67263 -0.56185
C 12.83117 4.04844 -0.41745
C 12.81675 4.63464 -1.77339
C 13.07214 3.54614 -2.62100
C 13.21425 2.36131 -1.84934
C 12.54186 5.99523 -2.08860
C 13.24327 3.12814 -3.99384
O 13.31546 3.70880 -5.07613
C 13.21689 1.53974 -4.04548
C 14.37624 1.08308 -4.88803
O 15.54576 1.27770 -4.51261
O 13.91697 0.30441 -5.88459
C 15.03096 -0.18216 -6.74138
H 12.17063 -3.19375 0.92125
H 12.55572 1.32824 5.21249
H 12.50921 5.69287 0.69779
H 12.50256 -1.49515 -3.70247
H 12.69149 -3.37146 -1.60942
H 10.45778 -1.63934 -2.58434
H 10.37918 -2.05536 -0.85950
H 10.39664 -3.35090 -2.01748
H 14.86547 -2.52216 -2.11259
H 15.15553 -1.23188 -3.33579
H 13.67004 -3.31484 -4.58565
H 14.68881 -4.11863 -3.44508
H 12.77991 -4.27049 2.62717
H 12.29074 -4.03146 4.27118
H 14.03461 -4.12579 3.92940
H 13.01414 -3.31513 6.25586
H 14.06074 -2.43875 7.51416
H 14.70278 -2.97791 5.93602
H 12.87164 3.85726 5.14999
H 11.36981 5.43657 3.12340
H 10.83479 4.03254 6.12447
H 10.20949 2.94346 4.83648
H 10.12261 4.61756 4.62329
H 13.15094 6.39681 4.63248
H 13.27990 6.86004 2.94613
H 14.82993 5.01936 4.61689
H 15.46116 6.25138 3.46428
H 14.83112 4.64234 2.89123
H 13.26740 6.29508 -2.83303
H 12.59441 6.62669 -1.20413
H 11.52066 5.90496 -2.46842
H 12.25835 1.24171 -4.47205
H 14.79662 0.11366 -7.76864
H 15.11446 -1.26593 -6.53590
H 16.00395 0.27553 -6.60622

