%nproc=24
%mem=175gb
#p cam-b3lyp/Def2SVP td=(nstates=5)

TDDFT excited states in gaussian

0 1
Mg 0.00000 0.00000 0.00000
C -0.21700 -2.21800 2.80100
C -1.25500 2.44200 2.02600
C -0.24500 1.85000 -2.56400
C 0.14600 -2.82400 -2.03700
N -0.61700 -0.00900 2.12600
C -0.59400 -0.90800 3.10500
C -0.93600 -0.30900 4.50200
C -1.77300 0.96400 4.03200
C -1.15500 1.16800 2.66000
C -3.26300 0.68500 3.86300
C 0.34500 0.11000 5.29900
C 0.12400 0.39700 6.78700
H 1.16800 0.03300 7.73300
N -0.18500 1.96100 -0.15200
C -0.70300 2.80000 0.77700
C -0.62000 4.15600 0.19300
C -0.18700 4.01500 -1.22500
C -0.21400 2.58300 -1.38000
C -0.88700 5.40600 0.97400
C 0.18100 5.01300 -2.27700
O 0.30300 4.69000 -3.50800
C 0.31000 6.41400 -1.83700
N -0.26500 -0.41300 -2.02900
C -0.27900 0.56900 -2.93700
C -0.19600 0.02400 -4.33200
C 0.12400 -1.53300 -4.18000
C 0.08600 -1.63200 -2.63500
C -1.45100 0.20500 -5.19700
C 1.37300 -2.07000 -4.92300
C 2.62600 -1.49000 -4.30600
N 0.15000 -2.14400 0.30300
C 0.17300 -3.13600 -0.68800
C 0.17300 -4.43800 0.00400
C 0.13300 -4.11100 1.35800
C 0.08300 -2.69500 1.50200
C 0.14900 -5.71500 -0.62300
C 0.09600 -4.62900 2.71600
O 0.20800 -5.74700 3.22100
C -0.25500 -3.42800 3.70100
C 0.71700 -3.48200 4.84800
O 1.93100 -3.25500 4.66900
O 0.03800 -3.55600 6.00300
C 0.94300 -3.58300 7.18300
H -1.85900 3.22000 2.49700
H -0.21800 2.45300 -3.47400
H 0.27600 -3.74700 -2.60500
H -1.55400 -0.94900 5.13200
H -1.58500 1.83100 4.66500
H -3.48400 -0.37700 3.96900
H -3.51100 1.02700 2.85800
H -3.85200 1.30100 4.54300
H 0.66900 1.09600 4.96600
H 1.13000 -0.63900 5.18900
H -0.84400 0.02600 7.12500
H 0.06200 1.47700 6.92100
H -1.34400 5.18600 1.93800
H -1.65100 5.96300 0.43200
H 0.00700 6.02000 1.08400
H -0.63500 6.74400 -1.40500
H 0.66500 6.97000 -2.70400
H 1.04800 6.46600 -1.03600
H 0.60800 0.50100 -4.89100
H -0.69200 -2.15600 -4.54700
H -1.26700 0.74000 -6.12900
H -2.20400 0.71400 -4.59600
H -1.96700 -0.72000 -5.45300
H 1.35600 -1.75900 -5.96700
H 1.45200 -3.15700 -4.90200
H 2.71400 -0.52200 -4.79800
H 3.48700 -2.12100 -4.52900
H 2.49500 -1.30300 -3.24000
H 0.86700 -6.33300 -0.08400
H 0.40400 -5.64200 -1.68000
H -0.89100 -5.99900 -0.46300
H -1.28300 -3.58100 4.02800
H 0.69800 -4.47800 7.75500
H 0.83300 -2.61900 7.68000
H 2.00000 -3.75400 6.97600
Mg 15.77364 1.42390 1.19151
C 15.20079 4.89871 1.88190
C 15.07673 2.11187 -2.07585
C 15.82867 -1.69769 0.62578
C 15.30129 0.81370 4.59007
N 15.22405 3.30138 0.15938
C 15.09677 4.57120 0.51392
C 14.92353 5.55619 -0.67324
C 14.33340 4.52695 -1.75550
C 14.94040 3.23254 -1.21816
C 12.81977 4.40197 -1.70430
C 16.28881 6.16755 -1.14678
C 16.16405 7.36477 -2.09169
H 17.14864 8.43829 -1.98874
N 15.97638 0.43139 -0.51506
C 15.66567 0.86957 -1.75310
C 15.98059 -0.24181 -2.66404
C 16.34736 -1.42950 -1.84576
C 16.03815 -0.93999 -0.51728
C 15.99412 -0.09093 -4.15752
C 16.87537 -2.78633 -2.20129
O 16.89787 -3.74437 -1.35012
C 17.27845 -2.98689 -3.60086
N 15.38366 -0.23257 2.38581
C 15.53261 -1.48029 1.90734
C 15.46537 -2.50184 3.01742
C 15.48206 -1.66034 4.37726
C 15.46533 -0.23159 3.79093
C 14.24394 -3.42070 3.00281
C 16.58062 -2.02081 5.41453
C 17.94295 -1.65233 4.87261
N 15.51483 2.62798 2.96669
C 15.30726 2.16900 4.28591
C 15.07144 3.35905 5.12888
C 15.13585 4.43473 4.23041
C 15.37355 3.94783 2.91666
C 14.79013 3.34763 6.52417
C 15.04625 5.87062 4.09290
O 14.94408 6.81362 4.87650
C 14.95848 6.22565 2.54608
C 15.93379 7.33659 2.26844
O 17.15722 7.14820 2.38812
O 15.27912 8.36616 1.70119
C 16.20630 9.48847 1.39691
H 14.65562 2.17261 -3.07977
H 15.94711 -2.77690 0.50434
H 15.24337 0.71480 5.67614
H 14.21634 6.35817 -0.49861
H 14.71209 4.74093 -2.75158
H 12.39929 4.93874 -0.86691
H 12.61484 3.34305 -1.61634
H 12.38321 4.71531 -2.65697
H 16.78891 5.45331 -1.81350
H 16.89949 6.43304 -0.30582
H 15.14726 7.77577 -2.10423
H 16.32537 7.01742 -3.11509
H 15.52245 0.84851 -4.47120
H 15.34155 -0.87135 -4.56368
H 16.99277 -0.20815 -4.58369
H 16.42960 -2.79350 -4.25240
H 17.71168 -3.98823 -3.63957
H 18.04471 -2.24566 -3.85390
H 16.33053 -3.15313 2.99655
H 14.54550 -1.77940 4.94163
H 14.50631 -4.49501 2.96985
H 13.62626 -3.15395 2.15556
H 13.55838 -3.29090 3.83849
H 16.59737 -3.09943 5.58905
H 16.43976 -1.54095 6.37728
H 18.20027 -2.51196 4.24657
H 18.65699 -1.52720 5.68410
H 17.88214 -0.77470 4.21861
H 15.38130 4.13790 6.96744
H 15.01998 2.38131 6.96820
H 13.71525 3.54673 6.50806
H 13.93003 6.52167 2.33575
H 15.80300 10.37859 1.88958
H 16.28904 9.51702 0.29415
H 17.20244 9.44480 1.82147

