%nproc=24
%mem=175gb
#p cam-b3lyp/Def2SVP td=(nstates=5)

TDDFT excited states in gaussian

0 1
Mg 8.92684 0.80808 0.68529
C 6.57255 -1.90049 0.68159
C 6.42009 2.79142 -0.50515
C 11.07974 3.09788 0.25024
C 11.46351 -1.58024 0.76870
N 6.81243 0.38484 0.19296
C 6.01266 -0.66646 0.29029
C 4.51377 -0.36094 0.02656
C 4.69175 0.95704 -0.87351
C 6.04216 1.43455 -0.34335
C 4.83937 0.65791 -2.35609
C 3.72525 -0.05223 1.34753
C 2.20196 -0.04943 1.20146
H 1.39523 -0.54495 2.31327
N 8.69113 2.76444 0.44936
C 7.60001 3.40120 -0.02529
C 7.93648 4.83331 -0.02145
C 9.37329 4.97661 0.33878
C 9.78466 3.58706 0.33980
C 6.91762 5.90920 -0.26186
C 10.23749 6.16804 0.62141
O 11.51447 6.07486 0.68018
C 9.55148 7.46344 0.73469
N 10.97278 0.76844 0.31798
C 11.68012 1.90790 0.22192
C 13.16457 1.63098 0.23251
C 13.30993 0.08148 0.60063
C 11.81611 -0.30718 0.65391
C 13.90354 1.91464 -1.07510
C 14.20938 -0.27158 1.81678
C 13.57381 0.23265 3.09239
N 9.03544 -1.33852 0.90518
C 10.19781 -2.14016 0.88649
C 9.75672 -3.54831 0.95713
C 8.35633 -3.46848 0.98905
C 7.95255 -2.10765 0.92128
C 10.60813 -4.68882 0.93567
C 7.12756 -4.22651 1.05395
O 6.84662 -5.41365 1.21362
C 5.91466 -3.25158 0.73021
C 4.84924 -3.47512 1.76820
O 5.05799 -3.18825 2.96015
O 3.69295 -3.78393 1.15338
C 2.60297 -4.00402 2.14096
H 5.77253 3.44398 -1.09143
H 11.86754 3.85371 0.21033
H 12.19633 -2.37957 0.89797
H 3.98606 -1.12441 -0.53237
H 3.91752 1.68918 -0.65926
H 4.91889 -0.40193 -2.54730
H 5.74052 1.16779 -2.67076
H 4.02103 1.11850 -2.91689
H 3.88927 0.99683 1.62558
H 4.01206 -0.72839 2.12931
H 1.87750 -0.50523 0.25811
H 1.86218 0.98660 1.12936
H 5.98378 5.49644 -0.66309
H 7.30414 6.54104 -1.06886
H 6.74376 6.52933 0.62011
H 9.01468 7.66973 -0.18821
H 10.32328 8.17830 1.02654
H 8.79855 7.39243 1.52758
H 13.66260 2.22088 0.99217
H 13.75497 -0.49340 -0.22477
H 14.73901 2.63041 -0.95789
H 13.18783 2.28083 -1.79913
H 14.31012 1.03741 -1.57546
H 15.17582 0.23131 1.73170
H 14.40662 -1.33394 1.91415
H 13.88116 1.28226 3.12309
H 13.95387 -0.31522 3.95230
H 12.48007 0.21135 3.02228
H 10.23675 -5.36884 1.69075
H 11.64456 -4.41480 1.12146
H 10.45145 -5.02987 -0.09117
H 5.56323 -3.48841 -0.27476
H 2.19270 -4.99995 1.94732
H 1.91604 -3.14482 2.02417
H 2.88201 -4.08950 3.18465

