%nproc=24
%mem=175gb
#p cam-b3lyp/Def2SVP td=(nstates=5)

TDDFT excited states in gaussian

0 1
Mg 10.51724 0.94289 0.80619
C 8.11621 0.01000 3.30496
C 11.78210 3.16421 3.06461
C 12.34938 2.10273 -1.51015
C 8.39450 -0.47734 -1.56501
N 9.93878 1.43141 2.88441
C 9.04996 0.96865 3.75054
C 9.21955 1.50785 5.19625
C 9.99357 2.87278 4.85456
C 10.64483 2.46093 3.53588
C 9.06114 4.04144 4.58227
C 10.09438 0.55946 6.08913
C 10.04618 0.86248 7.58833
H 10.10842 -0.25477 8.52661
N 12.16331 2.04735 0.90203
C 12.53078 2.87501 1.90264
C 13.80987 3.46910 1.48411
C 14.08541 3.05028 0.08290
C 12.83935 2.38635 -0.24364
C 14.67415 4.27524 2.40963
C 15.26896 3.23015 -0.81878
O 15.19965 2.99243 -2.07637
C 16.48462 3.78168 -0.20276
N 10.29772 1.02093 -1.25973
C 11.26683 1.53212 -2.03911
C 11.00966 1.23228 -3.49663
C 9.78744 0.20104 -3.51395
C 9.47811 0.14981 -2.00164
C 10.67099 2.43725 -4.37398
C 10.00735 -1.13832 -4.26921
C 11.03525 -1.97690 -3.54422
N 8.69509 -0.21738 0.84634
C 7.95871 -0.68767 -0.26300
C 6.73539 -1.32553 0.26525
C 6.83453 -1.16043 1.65500
C 8.02496 -0.45076 1.96925
C 5.69774 -1.90863 -0.51539
C 6.19757 -1.41580 2.92691
O 5.21018 -2.05282 3.29159
C 6.93615 -0.55850 4.04312
C 7.21106 -1.46024 5.21522
O 7.99902 -2.41618 5.10608
O 6.67088 -0.92017 6.32288
C 6.92655 -1.77280 7.51430
H 12.10947 4.04808 3.61278
H 12.99980 2.38469 -2.34137
H 7.73053 -1.02967 -2.23341
H 8.29178 1.72553 5.71164
H 10.75159 3.09456 5.60128
H 8.02708 3.73216 4.54738
H 9.36757 4.44573 3.62639
H 9.22990 4.83674 5.31394
H 11.15533 0.75926 5.89108
H 9.83688 -0.46796 5.91967
H 9.21952 1.53550 7.84645
H 10.94361 1.42466 7.85777
H 14.13448 4.55417 3.32306
H 14.87427 5.22942 1.91028
H 15.62507 3.78594 2.63099
H 16.26121 4.75428 0.22920
H 17.24705 3.75232 -0.98361
H 16.78322 3.13025 0.62615
H 11.87234 0.76247 -3.95287
H 8.89969 0.62952 -4.00195
H 11.35545 2.55636 -5.23502
H 10.68129 3.32419 -3.75449
H 9.65871 2.44694 -4.77449
H 10.40966 -0.94861 -5.26736
H 9.09906 -1.71856 -4.39301
H 11.98460 -1.57313 -3.90862
H 10.92653 -3.02738 -3.80636
H 10.99535 -1.80056 -2.46304
H 5.43117 -2.83975 -0.03325
H 6.01594 -2.06918 -1.54337
H 4.93471 -1.12940 -0.43882
H 6.27798 0.26952 4.30915
H 5.95327 -1.99628 7.96204
H 7.64920 -1.21018 8.13477
H 7.31453 -2.77008 7.34297

