%nproc=24
%mem=175gb
#p cam-b3lyp/Def2SVP td=(nstates=5)

TDDFT excited states in gaussian

0 1
Mg 0.00000 0.00000 0.00000
C -0.21700 -2.21800 2.80100
C -1.25500 2.44200 2.02600
C -0.24500 1.85000 -2.56400
C 0.14600 -2.82400 -2.03700
N -0.61700 -0.00900 2.12600
C -0.59400 -0.90800 3.10500
C -0.93600 -0.30900 4.50200
C -1.77300 0.96400 4.03200
C -1.15500 1.16800 2.66000
C -3.26300 0.68500 3.86300
C 0.34500 0.11000 5.29900
C 0.12400 0.39700 6.78700
H 1.16800 0.03300 7.73300
N -0.18500 1.96100 -0.15200
C -0.70300 2.80000 0.77700
C -0.62000 4.15600 0.19300
C -0.18700 4.01500 -1.22500
C -0.21400 2.58300 -1.38000
C -0.88700 5.40600 0.97400
C 0.18100 5.01300 -2.27700
O 0.30300 4.69000 -3.50800
C 0.31000 6.41400 -1.83700
N -0.26500 -0.41300 -2.02900
C -0.27900 0.56900 -2.93700
C -0.19600 0.02400 -4.33200
C 0.12400 -1.53300 -4.18000
C 0.08600 -1.63200 -2.63500
C -1.45100 0.20500 -5.19700
C 1.37300 -2.07000 -4.92300
C 2.62600 -1.49000 -4.30600
N 0.15000 -2.14400 0.30300
C 0.17300 -3.13600 -0.68800
C 0.17300 -4.43800 0.00400
C 0.13300 -4.11100 1.35800
C 0.08300 -2.69500 1.50200
C 0.14900 -5.71500 -0.62300
C 0.09600 -4.62900 2.71600
O 0.20800 -5.74700 3.22100
C -0.25500 -3.42800 3.70100
C 0.71700 -3.48200 4.84800
O 1.93100 -3.25500 4.66900
O 0.03800 -3.55600 6.00300
C 0.94300 -3.58300 7.18300
H -1.85900 3.22000 2.49700
H -0.21800 2.45300 -3.47400
H 0.27600 -3.74700 -2.60500
H -1.55400 -0.94900 5.13200
H -1.58500 1.83100 4.66500
H -3.48400 -0.37700 3.96900
H -3.51100 1.02700 2.85800
H -3.85200 1.30100 4.54300
H 0.66900 1.09600 4.96600
H 1.13000 -0.63900 5.18900
H -0.84400 0.02600 7.12500
H 0.06200 1.47700 6.92100
H -1.34400 5.18600 1.93800
H -1.65100 5.96300 0.43200
H 0.00700 6.02000 1.08400
H -0.63500 6.74400 -1.40500
H 0.66500 6.97000 -2.70400
H 1.04800 6.46600 -1.03600
H 0.60800 0.50100 -4.89100
H -0.69200 -2.15600 -4.54700
H -1.26700 0.74000 -6.12900
H -2.20400 0.71400 -4.59600
H -1.96700 -0.72000 -5.45300
H 1.35600 -1.75900 -5.96700
H 1.45200 -3.15700 -4.90200
H 2.71400 -0.52200 -4.79800
H 3.48700 -2.12100 -4.52900
H 2.49500 -1.30300 -3.24000
H 0.86700 -6.33300 -0.08400
H 0.40400 -5.64200 -1.68000
H -0.89100 -5.99900 -0.46300
H -1.28300 -3.58100 4.02800
H 0.69800 -4.47800 7.75500
H 0.83300 -2.61900 7.68000
H 2.00000 -3.75400 6.97600
Mg 7.88275 0.70229 0.60640
C 5.52304 2.17359 2.87490
C 10.14331 0.75327 3.16019
C 10.10890 -0.17152 -1.47883
C 5.85277 1.80640 -2.00240
N 7.73351 1.39731 2.70090
C 6.76861 1.88108 3.46856
C 7.13552 1.98631 4.97317
C 8.73270 2.06561 4.82623
C 8.89274 1.32985 3.49743
C 9.25143 3.48340 4.65265
C 6.69571 0.71814 5.78577
C 6.74243 0.88079 7.30667
H 5.72433 0.20958 8.11005
N 9.67102 -0.10659 0.90032
C 10.43891 -0.00387 2.00534
C 11.66672 -0.75993 1.71375
C 11.63158 -1.17917 0.28626
C 10.45311 -0.46869 -0.16819
C 12.68926 -1.08728 2.76288
C 12.51983 -2.06191 -0.53712
O 12.43623 -2.09669 -1.81565
C 13.55276 -2.81398 0.19017
N 8.08243 0.98371 -1.44379
C 9.12002 0.45544 -2.11629
C 8.90889 0.55191 -3.60844
C 7.39740 1.03884 -3.79789
C 7.00680 1.23389 -2.31641
C 9.84653 1.50218 -4.35291
C 6.48211 0.16040 -4.69414
C 6.23601 -1.17458 -4.02881
N 5.93775 1.62701 0.43342
C 5.28713 2.02943 -0.75352
C 4.03887 2.71214 -0.35578
C 4.06134 2.67960 1.04669
C 5.25016 2.04086 1.49191
C 3.09388 3.30104 -1.24253
C 3.35483 3.04978 2.25188
O 2.25229 3.53748 2.49745
C 4.33045 2.85105 3.49086
C 3.57761 2.10825 4.56043
O 3.20696 0.93585 4.37418
O 3.60968 2.82367 5.69952
C 2.88548 2.12276 6.79317
H 10.99198 0.93166 3.82113
H 10.79138 -0.55049 -2.24307
H 5.11824 2.09238 -2.75828
H 6.76335 2.87397 5.47049
H 9.23033 1.52225 5.62528
H 8.44758 4.19530 4.53797
H 9.86917 3.46394 3.76435
H 9.91938 3.74418 5.47858
H 7.45025 -0.06863 5.65769
H 5.71773 0.39437 5.48686
H 6.83713 1.93166 7.60611
H 7.65750 0.41286 7.67776
H 12.52610 -0.50603 3.67882
H 13.65650 -0.73636 2.38718
H 12.75644 -2.15822 2.96593
H 14.19774 -2.11910 0.72271
H 14.02739 -3.45460 -0.55563
H 13.06412 -3.43478 0.94941
H 9.02783 -0.41623 -4.07924
H 7.34507 2.03095 -4.26991
H 10.41408 1.00859 -5.16428
H 10.52089 1.94876 -3.63434
H 9.36617 2.37478 -4.79226
H 6.97583 -0.05320 -5.64533
H 5.52846 0.62412 -4.92329
H 7.12265 -1.75408 -4.30292
H 5.32887 -1.63413 -4.41605
H 6.23158 -1.07536 -2.93712
H 2.11282 3.01909 -0.88404
H 3.25275 2.97322 -2.26774
H 3.33346 4.35925 -1.10815
H 4.64362 3.84147 3.82338
H 2.12729 2.81619 7.16999
H 3.66559 1.79384 7.50520
H 2.27548 1.26862 6.52339

