%nproc=24
%mem=175gb
#p cam-b3lyp/Def2SVP td=(nstates=5)

TDDFT excited states in gaussian

0 1
Mg 7.89121 0.70340 0.59611
C 7.91544 1.13470 -2.96654
C 7.34927 -2.61807 0.04042
C 7.41620 0.36079 3.71451
C 7.29338 4.12610 0.86702
N 7.67939 -0.46986 -1.26692
C 7.76825 -0.20859 -2.56236
C 7.77585 -1.46567 -3.47300
C 7.02735 -2.48448 -2.48272
C 7.39954 -1.84466 -1.14677
C 5.51427 -2.45582 -2.62095
C 9.22945 -1.95294 -3.80710
C 9.31911 -2.98241 -4.93577
H 10.47192 -2.93524 -5.83091
N 7.93531 -0.92427 1.73071
C 7.71437 -2.19631 1.33779
C 7.84208 -3.01980 2.55010
C 7.99353 -2.11229 3.71980
C 7.76162 -0.82836 3.08907
C 7.89356 -4.51961 2.51331
C 8.28461 -2.36014 5.16896
O 8.13588 -1.44315 6.05204
C 8.65900 -3.73344 5.53689
N 7.21380 2.00340 2.07037
C 7.15110 1.61741 3.35684
C 6.90095 2.79525 4.26817
C 7.05009 4.09232 3.34462
C 7.28281 3.40633 1.98056
C 5.54053 2.82037 4.96459
C 8.06219 5.17489 3.80978
C 9.47190 4.63652 3.71886
N 7.82750 2.38339 -0.76095
C 7.53359 3.72717 -0.44162
C 7.49782 4.47894 -1.71284
C 7.75269 3.50827 -2.69331
C 7.91446 2.23737 -2.07836
C 7.20718 5.86546 -1.85144
C 7.91113 3.26788 -4.10957
O 7.96528 3.98066 -5.11095
C 7.89817 1.69837 -4.36031
C 9.05139 1.36314 -5.26598
O 10.22354 1.52104 -4.88162
O 8.58717 0.71122 -6.34758
C 9.69513 0.34763 -7.27066
H 6.95307 -3.63224 -0.01746
H 7.34931 0.31834 4.80409
H 7.21042 5.21501 0.87497
H 7.21483 -1.36273 -4.39410
H 7.44527 -3.48516 -2.55582
H 5.18488 -1.66728 -3.28114
H 5.13052 -2.29753 -1.62159
H 5.14563 -3.43703 -2.93344
H 9.60550 -2.55709 -2.97144
H 9.86956 -1.12041 -4.02568
H 8.38773 -3.04492 -5.51160
H 9.42709 -3.97517 -4.49217
H 7.59213 -4.90851 1.53285
H 7.12050 -4.88301 3.19902
H 8.86093 -4.91574 2.82943
H 7.86115 -4.41438 5.25017
H 8.91489 -3.69239 6.59742
H 9.54282 -4.02233 4.95721
H 7.64211 2.83828 5.05680
H 6.10233 4.64425 3.26116
H 5.61555 2.86879 6.06736
H 4.98459 1.94383 4.65939
H 4.88039 3.63048 4.65940
H 7.89277 5.42546 4.85985
H 7.99752 6.09824 3.24388
H 9.58356 4.07820 4.65315
H 10.19009 5.45170 3.65795
H 9.56751 3.92106 2.89386
H 7.92112 6.26391 -2.55998
H 7.26469 6.38127 -0.89519
H 6.18236 5.81316 -2.22864
H 6.93729 1.44649 -4.81067
H 9.44595 0.76778 -8.24998
H 9.79064 -0.75246 -7.20402
H 10.66557 0.79467 -7.08944

