%nproc=24
%mem=175gb
#p cam-b3lyp/Def2SVP td=(nstates=5)

TDDFT excited states in gaussian

0 1
Mg 15.75776 1.42146 1.20362
C 17.19302 3.52521 3.73213
C 14.86555 -0.72069 3.70357
C 14.88721 -0.66094 -1.02643
C 17.72546 3.11209 -1.12353
N 16.04699 1.50234 3.39498
C 16.55177 2.38011 4.24884
C 16.28779 2.04961 5.74237
C 16.07910 0.46333 5.60439
C 15.59944 0.40502 4.15552
C 17.37358 -0.32551 5.71108
C 14.99713 2.75318 6.29117
C 14.84802 2.72606 7.81393
H 14.24635 3.88078 8.47505
N 14.57213 -0.16568 1.32128
C 14.30486 -0.90205 2.42018
C 13.39407 -1.96919 1.97766
C 13.27614 -1.90066 0.49574
C 14.27876 -0.89768 0.19762
C 12.67440 -2.87383 2.93534
C 12.41384 -2.62788 -0.49107
O 12.64587 -2.58135 -1.75077
C 11.34667 -3.47109 0.06717
N 16.38836 1.10356 -0.75179
C 15.80800 0.16626 -1.52159
C 16.23281 0.30538 -2.96401
C 17.03436 1.68691 -3.04449
C 17.00990 2.08101 -1.55134
C 17.10697 -0.82253 -3.51178
C 16.54443 2.72488 -4.09103
C 15.18023 3.24659 -3.70097
N 17.06192 3.14385 1.22834
C 17.80757 3.66474 0.14817
C 18.63121 4.76963 0.68038
C 18.32234 4.80017 2.04865
C 17.38842 3.77285 2.35183
C 19.55537 5.55295 -0.06691
C 18.58201 5.46101 3.30744
O 19.21929 6.45575 3.65110
C 17.95819 4.58373 4.47689
C 17.18380 5.50101 5.38322
O 16.16615 6.08527 4.97136
O 17.64314 5.36864 6.64094
C 16.89870 6.25051 7.57898
H 14.74165 -1.56556 4.38160
H 14.53791 -1.28198 -1.85455
H 18.29171 3.75201 -1.80363
H 17.11702 2.25908 6.40741
H 15.30360 0.10695 6.27741
H 18.23785 0.32108 5.74407
H 17.40664 -0.95675 4.83274
H 17.33219 -1.00369 6.56822
H 14.11787 2.16143 6.00572
H 14.93619 3.76494 5.94009
H 15.78098 2.43963 8.31441
H 14.14643 1.93164 8.07980
H 13.08660 -2.79616 3.94898
H 12.89495 -3.90257 2.63052
H 11.59248 -2.72567 2.92250
H 11.78411 -4.22048 0.72255
H 10.78313 -3.83705 -0.79328
H 10.69811 -2.84673 0.69179
H 15.37078 0.36066 -3.61742
H 18.09000 1.53058 -3.31098
H 16.67927 -1.31024 -4.40804
H 17.26379 -1.54652 -2.72325
H 18.12542 -0.53496 -3.76728
H 16.42752 2.25075 -5.06863
H 17.22190 3.56262 -4.21837
H 14.50267 2.48037 -4.08943
H 14.99210 4.21226 -4.16586
H 15.06379 3.26774 -2.61117
H 19.40717 6.58133 0.23473
H 19.40885 5.42682 -1.13761
H 20.49911 5.11760 0.27234
H 18.78374 4.09589 4.99656
H 17.64052 6.87212 8.08986
H 16.29077 5.57276 8.20734
H 16.25016 7.00510 7.14951

