%nproc=24
%mem=175gb
#p cam-b3lyp/Def2SVP td=(nstates=5)

TDDFT excited states in gaussian

0 1
Mg 13.13665 1.17552 1.00548
C 11.05041 3.03159 3.25974
C 15.31575 0.76477 3.59727
C 15.20016 -0.07126 -1.05726
C 11.40171 2.67816 -1.61707
N 13.07905 1.85645 3.10912
C 12.20704 2.50192 3.86892
C 12.55737 2.51503 5.38109
C 14.14367 2.29497 5.26233
C 14.18909 1.56115 3.92363
C 14.92243 3.59240 5.12248
C 11.87155 1.34066 6.16373
C 11.91789 1.47007 7.68782
H 10.77630 0.99073 8.46208
N 14.73531 0.04104 1.31500
C 15.48686 -0.01798 2.43436
C 16.55660 -0.98701 2.15008
C 16.47166 -1.37190 0.71504
C 15.45656 -0.44634 0.25351
C 17.47867 -1.51544 3.21026
C 17.19469 -2.39403 -0.10879
O 17.13132 -2.39436 -1.38895
C 18.05365 -3.33697 0.62232
N 13.42602 1.44345 -1.03580
C 14.35920 0.73926 -1.70004
C 14.19944 0.89482 -3.19358
C 12.81014 1.65964 -3.39970
C 12.43386 1.90357 -1.92176
C 15.31318 1.66250 -3.90537
C 11.76422 0.98156 -4.32649
C 11.25902 -0.29272 -3.68902
N 11.40339 2.45149 0.81628
C 10.86337 2.98575 -0.37410
C 9.75769 3.88507 0.01465
C 9.74595 3.82901 1.41651
C 10.78485 2.97209 1.87025
C 8.95763 4.65351 -0.87727
C 9.09773 4.30820 2.61605
O 8.10160 4.99080 2.85168
C 9.99411 3.91221 3.86749
C 9.09433 3.30897 4.91104
O 8.51412 2.22981 4.69797
O 9.23749 3.98940 6.06294
C 8.37322 3.42158 7.13179
H 16.16959 0.77118 4.27536
H 15.81442 -0.56081 -1.81653
H 10.74893 3.10770 -2.37999
H 12.34854 3.44966 5.88767
H 14.51468 1.65654 6.05990
H 14.26878 4.44418 5.00693
H 15.54298 3.46983 4.24445
H 15.61099 3.71133 5.96395
H 12.46753 0.42806 6.03445
H 10.85630 1.21063 5.84282
H 12.20207 2.48009 8.00728
H 12.72145 0.83337 8.06587
H 17.40935 -0.92693 4.13344
H 18.50179 -1.34717 2.85705
H 17.33978 -2.58271 3.39549
H 18.80687 -2.78323 1.17775
H 18.41435 -4.04470 -0.12660
H 17.44235 -3.86563 1.36221
H 14.14397 -0.07166 -3.67932
H 12.95414 2.65051 -3.85497
H 15.79400 1.08263 -4.71571
H 16.04500 1.96422 -3.16786
H 15.01378 2.61593 -4.33725
H 12.22782 0.69252 -5.27290
H 10.91918 1.61936 -4.56337
H 12.02648 -1.02451 -3.95842
H 10.28962 -0.56816 -4.09943
H 11.25171 -0.20992 -2.59598
H 7.93421 4.55581 -0.54029
H 9.07242 4.31624 -1.90530
H 9.38873 5.64586 -0.72026
H 10.48083 4.82136 4.22262
H 7.75125 4.23968 7.50802
H 9.06358 2.94192 7.85087
H 7.61930 2.70114 6.83682

