%nproc=24
%mem=175gb
#p cam-b3lyp/Def2SVP td=(nstates=5)

TDDFT excited states in gaussian

0 1
Mg 0.00000 0.00000 0.00000
C -0.21700 -2.21800 2.80100
C -1.25500 2.44200 2.02600
C -0.24500 1.85000 -2.56400
C 0.14600 -2.82400 -2.03700
N -0.61700 -0.00900 2.12600
C -0.59400 -0.90800 3.10500
C -0.93600 -0.30900 4.50200
C -1.77300 0.96400 4.03200
C -1.15500 1.16800 2.66000
C -3.26300 0.68500 3.86300
C 0.34500 0.11000 5.29900
C 0.12400 0.39700 6.78700
H 1.16800 0.03300 7.73300
N -0.18500 1.96100 -0.15200
C -0.70300 2.80000 0.77700
C -0.62000 4.15600 0.19300
C -0.18700 4.01500 -1.22500
C -0.21400 2.58300 -1.38000
C -0.88700 5.40600 0.97400
C 0.18100 5.01300 -2.27700
O 0.30300 4.69000 -3.50800
C 0.31000 6.41400 -1.83700
N -0.26500 -0.41300 -2.02900
C -0.27900 0.56900 -2.93700
C -0.19600 0.02400 -4.33200
C 0.12400 -1.53300 -4.18000
C 0.08600 -1.63200 -2.63500
C -1.45100 0.20500 -5.19700
C 1.37300 -2.07000 -4.92300
C 2.62600 -1.49000 -4.30600
N 0.15000 -2.14400 0.30300
C 0.17300 -3.13600 -0.68800
C 0.17300 -4.43800 0.00400
C 0.13300 -4.11100 1.35800
C 0.08300 -2.69500 1.50200
C 0.14900 -5.71500 -0.62300
C 0.09600 -4.62900 2.71600
O 0.20800 -5.74700 3.22100
C -0.25500 -3.42800 3.70100
C 0.71700 -3.48200 4.84800
O 1.93100 -3.25500 4.66900
O 0.03800 -3.55600 6.00300
C 0.94300 -3.58300 7.18300
H -1.85900 3.22000 2.49700
H -0.21800 2.45300 -3.47400
H 0.27600 -3.74700 -2.60500
H -1.55400 -0.94900 5.13200
H -1.58500 1.83100 4.66500
H -3.48400 -0.37700 3.96900
H -3.51100 1.02700 2.85800
H -3.85200 1.30100 4.54300
H 0.66900 1.09600 4.96600
H 1.13000 -0.63900 5.18900
H -0.84400 0.02600 7.12500
H 0.06200 1.47700 6.92100
H -1.34400 5.18600 1.93800
H -1.65100 5.96300 0.43200
H 0.00700 6.02000 1.08400
H -0.63500 6.74400 -1.40500
H 0.66500 6.97000 -2.70400
H 1.04800 6.46600 -1.03600
H 0.60800 0.50100 -4.89100
H -0.69200 -2.15600 -4.54700
H -1.26700 0.74000 -6.12900
H -2.20400 0.71400 -4.59600
H -1.96700 -0.72000 -5.45300
H 1.35600 -1.75900 -5.96700
H 1.45200 -3.15700 -4.90200
H 2.71400 -0.52200 -4.79800
H 3.48700 -2.12100 -4.52900
H 2.49500 -1.30300 -3.24000
H 0.86700 -6.33300 -0.08400
H 0.40400 -5.64200 -1.68000
H -0.89100 -5.99900 -0.46300
H -1.28300 -3.58100 4.02800
H 0.69800 -4.47800 7.75500
H 0.83300 -2.61900 7.68000
H 2.00000 -3.75400 6.97600
Mg 8.94204 0.80461 0.67152
C 8.53599 4.11893 -0.64357
C 8.40348 -0.35499 -2.49073
C 8.84625 -2.13123 1.87113
C 8.31337 2.13154 3.83218
N 8.53430 1.84582 -1.23685
C 8.46407 3.10981 -1.62639
C 8.38853 3.30561 -3.16441
C 7.78264 1.87195 -3.55986
C 8.29769 1.05427 -2.37715
C 6.26357 1.83460 -3.54094
C 9.80166 3.52949 -3.80858
C 9.77731 4.03315 -5.25339
H 10.81493 4.96673 -5.68264
N 9.15206 -0.95515 -0.22162
C 8.91120 -1.24374 -1.51776
C 9.19763 -2.67860 -1.67041
C 9.46860 -3.24880 -0.32276
C 9.13851 -2.11341 0.51510
C 9.27384 -3.35533 -3.00819
C 9.93395 -4.59734 0.13670
O 9.87280 -4.94717 1.36825
C 10.37616 -5.53004 -0.91020
N 8.41847 0.06194 2.54146
C 8.51605 -1.25069 2.81608
C 8.35244 -1.51235 4.29430
C 8.36572 -0.07221 4.98958
C 8.44880 0.81654 3.72918
C 7.08377 -2.26176 4.70081
C 9.40430 0.15281 6.12245
C 10.80364 0.13534 5.55067
N 8.68519 2.78103 1.50570
C 8.40480 3.10961 2.85014
C 8.20408 4.57206 2.90815
C 8.36013 4.99325 1.57896
C 8.61847 3.86989 0.74781
C 7.87191 5.32062 4.07238
C 8.35454 6.13143 0.68833
O 8.27579 7.35024 0.83678
C 8.34282 5.60071 -0.80986
C 9.38710 6.36130 -1.58025
O 10.59318 6.23431 -1.30481
O 8.81104 6.94103 -2.64910
C 9.80888 7.69815 -3.45090
H 8.02320 -0.83269 -3.39410
H 8.90963 -3.10899 2.35431
H 8.21057 2.63406 4.79633
H 7.72053 4.09412 -3.48968
H 8.20855 1.50624 -4.49057
H 5.84294 2.74858 -3.14869
H 5.99776 0.99523 -2.91178
H 5.87988 1.59771 -4.53744
H 10.28576 2.55569 -3.95720
H 10.39493 4.18932 -3.20584
H 8.78574 4.39982 -5.54544
H 9.95651 3.18560 -5.91940
H 8.86619 -2.72000 -3.80417
H 8.59466 -4.21394 -2.97134
H 10.27942 -3.71002 -3.24412
H 9.56351 -5.69497 -1.61366
H 10.75491 -6.40608 -0.38013
H 11.19066 -5.06212 -1.47435
H 9.18073 -2.09539 4.67783
H 7.40409 0.15610 5.47226
H 7.28781 -3.19163 5.26453
H 6.51294 -2.47636 3.80714
H 6.37637 -1.68451 5.29373
H 9.35546 -0.66251 6.84842
H 9.25500 1.07881 6.66762
H 11.03604 -0.93258 5.49959
H 11.49343 0.65829 6.21004
H 10.81498 0.52454 4.52596
H 8.48901 6.20914 4.05782
H 8.03204 4.73922 4.97798
H 6.81088 5.50838 3.88738
H 7.34052 5.76441 -1.20757
H 9.43735 8.72392 -3.53726
H 9.93320 7.12671 -4.38991
H 10.78498 7.86318 -3.00995

