%nproc=24
%mem=175gb
#p cam-b3lyp/Def2SVP td=(nstates=5)

TDDFT excited states in gaussian

0 1
Mg 10.52047 0.95071 0.79875
C 12.16813 -1.16668 3.18223
C 11.12789 3.55485 2.91633
C 8.68833 2.75779 -1.05736
C 9.06877 -1.92075 -0.54026
N 11.52738 1.05474 2.76537
C 12.16887 0.19659 3.54409
C 12.91775 0.84712 4.73805
C 12.05072 2.19322 4.86109
C 11.56204 2.30194 3.41816
C 10.83869 2.04778 5.76616
C 14.41870 1.15918 4.40370
C 15.28812 1.50757 5.61385
H 16.68098 1.06896 5.61958
N 10.39523 2.92573 0.64986
C 10.70407 3.83450 1.59856
C 10.41933 5.14957 1.00385
C 9.76185 4.93597 -0.31403
C 9.56655 3.50039 -0.28158
C 10.83868 6.44054 1.64493
C 9.36199 5.87087 -1.41506
O 8.58904 5.49835 -2.36721
C 9.82609 7.26079 -1.29580
N 8.92436 0.51502 -0.46020
C 8.33901 1.47839 -1.19313
C 7.40476 0.88880 -2.22267
C 7.66894 -0.68813 -2.18949
C 8.69096 -0.74921 -1.03314
C 5.91657 1.15997 -2.00326
C 8.03554 -1.36880 -3.53669
C 9.39367 -0.89480 -4.00166
N 10.72476 -1.17940 1.09701
C 10.00160 -2.20467 0.44898
C 10.40938 -3.48282 1.06742
C 11.33171 -3.10743 2.05579
C 11.47259 -1.69338 2.06708
C 9.90117 -4.76918 0.73110
C 12.21020 -3.58502 3.09928
O 12.57185 -4.69408 3.49035
C 12.69591 -2.34018 3.96001
C 14.18555 -2.45065 4.13691
O 14.94680 -2.35935 3.15774
O 14.47621 -2.42764 5.45044
C 15.94301 -2.52349 5.67653
H 11.06505 4.39661 3.60652
H 8.11304 3.32531 -1.79250
H 8.73509 -2.86880 -0.96749
H 12.86878 0.28733 5.66435
H 12.67663 3.04421 5.11682
H 10.69403 1.02615 6.08474
H 9.99283 2.38517 5.18158
H 10.91481 2.73726 6.61183
H 14.47334 2.10755 3.85383
H 14.86428 0.34905 3.85985
H 14.79954 1.24790 6.56085
H 15.40058 2.59353 5.65924
H 11.15428 6.28946 2.68463
H 9.94239 7.06560 1.72124
H 11.59321 6.97418 1.06305
H 9.45707 7.68617 -0.36556
H 9.51639 7.75260 -2.21996
H 10.91981 7.25995 -1.22943
H 7.63469 1.26287 -3.21277
H 6.78071 -1.24308 -1.85348
H 5.43250 1.65971 -2.86349
H 5.80666 1.75524 -1.10654
H 5.31622 0.28160 -1.77249
H 7.32324 -1.07955 -4.31330
H 8.03549 -2.45256 -3.48714
H 9.16714 0.05263 -4.49982
H 9.83248 -1.60997 -4.69449
H 10.04562 -0.67137 -3.14920
H 10.75047 -5.43803 0.68825
H 9.36191 -4.74907 -0.21366
H 9.23511 -4.94387 1.58028
H 12.16681 -2.37448 4.91314
H 16.10878 -3.37732 6.34074
H 16.25370 -1.52878 6.04772
H 16.56426 -2.79058 4.82967

