%nproc=24
%mem=175gb
#p cam-b3lyp/Def2SVP td=(nstates=5)

TDDFT excited states in gaussian

0 1
Mg 8.94219 0.80269 0.67187
C 8.63491 3.68987 -1.43735
C 8.44200 -1.10080 -2.11401
C 8.75840 -1.73880 2.56251
C 8.27933 2.88658 3.38550
N 8.59559 1.34095 -1.44529
C 8.56075 2.46864 -2.13916
C 8.52035 2.27548 -3.67884
C 7.89141 0.79844 -3.71947
C 8.36470 0.29371 -2.35788
C 6.37181 0.79146 -3.72960
C 9.95065 2.30868 -4.32314
C 9.96627 2.43603 -5.84804
H 11.03238 3.21606 -6.47046
N 9.13168 -1.12746 0.25096
C 8.91062 -1.72657 -0.93794
C 9.16872 -3.15852 -0.72103
C 9.40012 -3.37854 0.73251
C 9.07812 -2.06476 1.25251
C 9.25698 -4.14892 -1.84563
C 9.82666 -4.57698 1.52496
O 9.73322 -4.60727 2.80292
C 10.26934 -5.74850 0.75484
N 8.36517 0.55887 2.65428
C 8.42859 -0.64503 3.24969
C 8.22970 -0.52672 4.74195
C 8.26042 1.04099 5.05651
C 8.38811 1.58550 3.61685
C 6.93710 -1.13040 5.29072
C 9.28073 1.52493 6.12301
C 10.69054 1.34276 5.60859
N 8.71179 2.92865 0.98055
C 8.41172 3.58692 2.19328
C 8.24180 5.02059 1.88000
C 8.43362 5.09406 0.49209
C 8.68403 3.79476 -0.02620
C 7.90274 6.04133 2.81233
C 8.47069 5.97380 -0.65394
O 8.41556 7.19218 -0.81592
C 8.47746 5.08613 -1.97242
C 9.55331 5.61341 -2.88184
O 10.75056 5.53979 -2.55356
O 9.01156 5.91715 -4.07542
C 10.04155 6.43398 -5.01554
H 8.06960 -1.78270 -2.87900
H 8.79075 -2.56586 3.27552
H 8.16819 3.61546 4.19113
H 7.87635 2.96848 -4.20685
H 8.32783 0.20516 -4.51879
H 5.96342 1.78107 -3.58807
H 6.07521 0.14012 -2.91792
H 6.00311 0.31952 -4.64484
H 10.41630 1.32095 -4.21232
H 10.54595 3.08844 -3.88930
H 8.98898 2.73410 -6.24680
H 10.14027 1.44629 -6.27715
H 8.87932 -3.72594 -2.78471
H 8.55864 -4.96011 -1.61287
H 10.25912 -4.56743 -1.96066
H 9.46756 -6.07071 0.09470
H 10.61820 -6.47046 1.49575
H 11.10500 -5.44940 0.11232
H 9.03723 -1.00881 5.27914
H 7.29451 1.39801 5.44300
H 7.10948 -1.89326 6.07328
H 6.37977 -1.55207 4.46482
H 6.23070 -0.41209 5.70331
H 9.19959 0.91756 7.02781
H 9.14074 2.56000 6.41633
H 10.90059 0.29229 5.83105
H 11.37820 2.00258 6.13376
H 10.73090 1.46359 4.51982
H 8.53923 6.88803 2.59214
H 8.03197 5.70191 3.83793
H 6.84998 6.19403 2.56006
H 7.48714 5.16148 -2.42316
H 9.69427 7.41155 -5.36402
H 10.17219 5.64428 -5.77913
H 11.01198 6.68812 -4.60551

