%nproc=24
%mem=175gb
#p cam-b3lyp/Def2SVP td=(nstates=5)

TDDFT excited states in gaussian

0 1
Mg 7.87880 0.70319 0.60598
C 6.39242 3.06558 2.86183
C 9.73415 -0.41808 3.23942
C 9.52532 -1.07712 -1.44021
C 6.78411 2.72534 -2.01285
N 7.96246 1.32317 2.72751
C 7.30715 2.19064 3.48408
C 7.59237 2.06211 5.00450
C 9.03608 1.36394 4.92016
C 8.89831 0.68104 3.56099
C 10.18201 2.35886 4.84082
C 6.55079 1.14157 5.73232
C 6.58263 1.21754 7.26039
H 5.32297 1.09906 7.98956
N 9.03698 -0.87720 0.92154
C 9.69469 -1.19019 2.05764
C 10.42164 -2.43668 1.77130
C 10.27110 -2.74544 0.32330
C 9.60820 -1.54122 -0.13549
C 11.09836 -3.24743 2.83814
C 10.67060 -3.92339 -0.51279
O 10.65411 -3.87662 -1.79356
C 11.17051 -5.10154 0.21077
N 8.30656 0.91196 -1.41782
C 8.99858 -0.03232 -2.07916
C 8.94597 0.19707 -3.57080
C 7.86899 1.35899 -3.78907
C 7.53613 1.67576 -2.31453
C 10.26614 0.59692 -4.22934
C 6.69710 1.05843 -4.76324
C 5.80127 -0.00994 -4.17888
N 6.63232 2.45719 0.41154
C 6.32496 3.15789 -0.77532
C 5.53873 4.34701 -0.38768
C 5.46223 4.26730 1.01099
C 6.16924 3.12111 1.46474
C 5.04638 5.34448 -1.27581
C 4.95316 4.89793 2.20759
O 4.20931 5.85039 2.43835
C 5.63985 4.21693 3.46898
C 4.56249 3.89997 4.46965
O 3.68482 3.05856 4.20827
O 4.86940 4.47769 5.64542
C 3.83588 4.18285 6.67338
H 10.52441 -0.69111 3.93930
H 9.98383 -1.71653 -2.19811
H 6.32258 3.35228 -2.77876
H 7.66540 3.00436 5.53423
H 9.16406 0.62501 5.70691
H 9.82798 3.37354 4.73482
H 10.76399 2.06890 3.97580
H 10.84437 2.24051 5.70315
H 6.83959 0.09220 5.59032
H 5.55667 1.33946 5.38132
H 7.15393 2.08269 7.61826
H 7.13661 0.35523 7.63923
H 11.18275 -2.68635 3.77701
H 12.13487 -3.39695 2.51696
H 10.63016 -4.22284 2.98654
H 12.03850 -4.82051 0.80244
H 11.32024 -5.86998 -0.55012
H 10.40078 -5.43049 0.91783
H 8.61118 -0.69400 -4.08753
H 8.32768 2.26599 -4.20952
H 10.57166 -0.08589 -5.04451
H 11.02967 0.64113 -3.46410
H 10.29105 1.60523 -4.63908
H 7.08079 0.66032 -5.70582
H 6.09918 1.93161 -5.00207
H 6.31373 -0.93758 -4.45084
H 4.80886 0.03744 -4.62263
H 5.78247 0.04759 -3.08436
H 4.03196 5.56152 -0.96866
H 5.08645 5.01037 -2.31047
H 5.75743 6.15080 -1.07699
H 6.37127 4.92267 3.86462
H 3.48470 5.14515 7.05853
H 4.31913 3.49757 7.39491
H 2.90677 3.73799 6.33677

