%nproc=24
%mem=175gb
#p cam-b3lyp/Def2SVP td=(nstates=5)

TDDFT excited states in gaussian

0 1
Mg 31.52399 2.84230 2.40049
C 29.27286 0.08918 1.91897
C 29.24114 4.79705 0.78737
C 33.66883 5.18047 2.40772
C 34.05258 0.50239 2.92655
N 29.54917 2.38682 1.51455
C 28.76889 1.31873 1.44605
C 27.33952 1.59972 0.90984
C 27.65362 2.93624 0.07682
C 28.86986 3.43054 0.85727
C 28.08296 2.66567 -1.35559
C 26.31085 1.87028 2.06338
C 24.84221 1.84615 1.63413
H 23.85270 1.31600 2.56809
N 31.29321 4.79752 2.15062
C 30.29644 5.42116 1.48820
C 30.59432 6.85923 1.57421
C 31.93467 7.02404 2.19952
C 32.36935 5.64289 2.25919
C 29.61487 7.91921 1.16125
C 32.70392 8.22689 2.65516
O 33.94904 8.15742 2.95125
C 31.98022 9.50664 2.65496
N 33.60288 2.84857 2.42312
C 34.29018 4.00298 2.47669
C 35.75216 3.75466 2.76195
C 35.86039 2.20214 3.13011
C 34.39205 1.78381 2.89695
C 36.71650 4.07510 1.62013
C 36.52373 1.84559 4.48861
C 35.64941 2.31534 5.62892
N 31.63716 0.69472 2.60820
C 32.79998 -0.08385 2.79728
C 32.38488 -1.50128 2.76511
C 31.00187 -1.44910 2.53475
C 30.58779 -0.09536 2.41056
C 33.25037 -2.62457 2.88859
C 29.79985 -2.23175 2.35780
O 29.52044 -3.42669 2.44608
C 28.64771 -1.27501 1.82526
C 27.41194 -1.53699 2.64181
O 27.38728 -1.26677 3.85548
O 26.39845 -1.85744 1.81688
C 25.14793 -2.11558 2.57937
H 28.70054 5.44700 0.09875
H 34.43316 5.95195 2.52642
H 34.76579 -0.28475 3.18036
H 26.94295 0.83595 0.25169
H 26.83687 3.64946 0.15172
H 28.22043 1.61102 -1.54259
H 29.01553 3.19822 -1.48875
H 27.37412 3.11996 -2.05379
H 26.39652 2.91735 2.38124
H 26.46109 1.18639 2.87601
H 24.71041 1.40051 0.64066
H 24.49900 2.87651 1.51337
H 28.78213 7.49547 0.58645
H 30.13158 8.57225 0.44962
H 29.26513 8.52054 2.00312
H 31.62135 9.71842 1.65056
H 32.66760 10.23114 3.09596
H 31.09386 9.40741 3.29146
H 36.08583 4.34088 3.60937
H 36.46484 1.65031 2.39529
H 37.49910 4.80475 1.90156
H 36.14113 4.43983 0.77961
H 37.22901 3.21466 1.19329
H 37.47758 2.36847 4.59311
H 36.72280 0.78572 4.60710
H 35.92216 3.37001 5.73074
H 35.87374 1.76015 6.53748
H 34.58891 2.27412 5.35453
H 32.75933 -3.32458 3.55143
H 34.22730 -2.33382 3.26919
H 33.29644 -2.95081 1.84613
H 28.49610 -1.50120 0.76912
H 24.80343 -3.11576 2.29892
H 24.47611 -1.26793 2.34722
H 25.22836 -2.21366 3.65564

