%nproc=24
%mem=175gb
#p cam-b3lyp/Def2SVP td=(nstates=5)

TDDFT excited states in gaussian

0 1
Mg 8.92711 0.80967 0.68443
C 10.99387 2.03033 3.35231
C 7.08562 -0.81253 3.05340
C 7.36492 -0.64087 -1.66565
C 11.53975 1.55983 -1.49664
N 9.11432 0.70047 2.88564
C 9.90162 1.25534 3.79482
C 9.44849 1.02929 5.26217
C 8.59181 -0.31161 5.04544
C 8.20535 -0.12060 3.58023
C 9.42060 -1.58026 5.15933
C 8.55440 2.20166 5.79899
C 8.33269 2.19997 7.31312
H 8.24757 3.48285 8.00554
N 7.17464 -0.12167 0.69030
C 6.56539 -0.70257 1.74512
C 5.31026 -1.26625 1.22448
C 5.30626 -1.11419 -0.25592
C 6.65375 -0.62784 -0.47459
C 4.22762 -1.80225 2.11556
C 4.26654 -1.37675 -1.30294
O 4.55841 -1.39999 -2.55078
C 2.91582 -1.69811 -0.81946
N 9.45852 0.30550 -1.26127
C 8.57345 -0.27316 -2.09176
C 9.08795 -0.29014 -3.51140
C 10.40404 0.61838 -3.50229
C 10.47565 0.94497 -1.99445
C 9.42509 -1.66820 -4.08035
C 10.45481 1.79383 -4.51640
C 9.42475 2.83749 -4.14878
N 10.83717 1.80881 0.83080
C 11.78609 1.99015 -0.19913
C 12.97408 2.62277 0.40987
C 12.64020 2.74556 1.76705
C 11.34418 2.20774 1.99195
C 14.17947 2.95614 -0.26985
C 13.09367 3.19819 3.06250
O 14.07574 3.81590 3.47203
C 12.09878 2.64031 4.16946
C 11.74442 3.77576 5.09016
O 11.09385 4.74947 4.67153
O 12.04085 3.42621 6.35520
C 11.69692 4.51603 7.30695
H 6.58060 -1.54142 3.68787
H 6.82607 -1.03080 -2.53230
H 12.35738 1.91464 -2.12772
H 10.25397 0.84665 5.96332
H 7.70609 -0.32059 5.67534
H 10.47505 -1.36582 5.25045
H 9.22541 -2.14135 4.25483
H 9.05219 -2.19854 5.98294
H 7.52225 2.04996 5.45780
H 8.94720 3.15156 5.49236
H 9.02906 1.52924 7.83093
H 7.34754 1.77444 7.51911
H 4.58291 -1.93527 3.14486
H 4.00430 -2.81806 1.77188
H 3.31365 -1.20596 2.07337
H 2.95977 -2.57982 -0.18455
H 2.29351 -1.76514 -1.71396
H 2.56448 -0.87358 -0.18912
H 8.36490 0.14548 -4.19002
H 11.30461 0.03342 -3.74025
H 8.87549 -1.90230 -5.01159
H 9.21968 -2.41068 -3.32070
H 10.48037 -1.83636 -4.28841
H 10.19586 1.44145 -5.51787
H 11.42972 2.26511 -4.58291
H 8.50573 2.44473 -4.59401
H 9.68865 3.80310 -4.57537
H 9.27455 2.87709 -3.06364
H 14.46817 3.94081 0.07305
H 14.04645 2.93344 -1.34946
H 14.83020 2.15053 0.08058
H 12.61144 1.83289 4.69369
H 12.60641 4.74735 7.86998
H 10.82810 4.14621 7.88326
H 11.45323 5.48653 6.89078

