%nproc=24
%mem=175gb
#p cam-b3lyp/Def2SVP td=(nstates=5)

TDDFT excited states in gaussian

0 1
Mg 13.14811 1.18734 0.99899
C 14.65785 -0.93150 3.47088
C 13.60275 3.78419 3.16331
C 11.42335 2.99181 -0.95971
C 11.80388 -1.68673 -0.44269
N 14.02874 1.28771 3.02549
C 14.62614 0.42978 3.83876
C 15.29390 1.07900 5.08061
C 14.41128 2.41849 5.15552
C 14.01344 2.53160 3.68528
C 13.14585 2.25997 5.98191
C 16.81062 1.40305 4.84279
C 17.59981 1.75087 6.10689
H 18.99264 1.32172 6.19800
N 13.01840 3.16223 0.85222
C 13.26056 4.06800 1.82290
C 13.00437 5.38426 1.21794
C 12.43251 5.17324 -0.13969
C 12.24579 3.73621 -0.12663
C 13.37342 6.67460 1.89043
C 12.09595 6.11127 -1.25908
O 11.38700 5.73859 -2.25975
C 12.54173 7.50365 -1.10406
N 11.63738 0.74754 -0.35991
C 11.09237 1.71081 -1.12345
C 10.22886 1.12039 -2.21255
C 10.50167 -0.45486 -2.17057
C 11.44944 -0.51517 -0.95259
C 8.72794 1.38025 -2.08577
C 10.95700 -1.12580 -3.49540
C 12.33824 -0.64010 -3.87176
N 13.34844 -0.94289 1.29904
C 12.67473 -1.96958 0.60182
C 13.05196 -3.24822 1.23837
C 13.90769 -2.87185 2.28459
C 14.03750 -1.45696 2.31166
C 12.57506 -4.53619 0.86447
C 14.72227 -3.34902 3.37887
O 15.06654 -4.45767 3.78645
C 15.14408 -2.10553 4.27453
C 16.62042 -2.20681 4.54416
O 17.44100 -2.10509 3.61523
O 16.82782 -2.18884 5.87345
C 18.27817 -2.27592 6.19081
H 13.49068 4.62180 3.85232
H 10.89134 3.55933 -1.72676
H 11.50446 -2.63473 -0.89470
H 15.19083 0.51395 5.99924
H 15.01381 3.27235 5.45426
H 12.98876 1.23569 6.28574
H 12.33601 2.59472 5.34697
H 13.16380 2.94542 6.83406
H 16.89293 2.35470 4.30210
H 17.29525 0.59889 4.32405
H 17.05457 1.48283 7.02002
H 17.70145 2.83732 6.16458
H 13.62416 6.52012 2.94715
H 12.46967 7.29314 1.91333
H 14.15918 7.21647 1.35975
H 12.11198 7.92154 -0.19678
H 12.28719 7.99829 -2.04343
H 13.62909 7.50991 -0.96910
H 10.51786 1.50131 -3.18440
H 9.59806 -1.01763 -1.89378
H 8.29531 1.88128 -2.97227
H 8.55768 1.96995 -1.19482
H 8.12055 0.49660 -1.89751
H 10.29285 -0.83726 -4.31381
H 10.96156 -2.20979 -3.45127
H 12.13672 0.30842 -4.37851
H 12.82480 -1.34856 -4.53913
H 12.93375 -0.41680 -2.97892
H 13.43012 -5.19901 0.87180
H 12.09608 -4.51470 -0.11220
H 11.85823 -4.71994 1.66925
H 14.55641 -2.14852 5.19234
H 18.40797 -3.13214 6.85993
H 18.55783 -1.28112 6.58568
H 18.95328 -2.53425 5.38338

