%nproc=24
%mem=175gb
#p cam-b3lyp/Def2SVP td=(nstates=5)

TDDFT excited states in gaussian

0 1
Mg 0.00000 0.00000 0.00000
C -0.21700 -2.21800 2.80100
C -1.25500 2.44200 2.02600
C -0.24500 1.85000 -2.56400
C 0.14600 -2.82400 -2.03700
N -0.61700 -0.00900 2.12600
C -0.59400 -0.90800 3.10500
C -0.93600 -0.30900 4.50200
C -1.77300 0.96400 4.03200
C -1.15500 1.16800 2.66000
C -3.26300 0.68500 3.86300
C 0.34500 0.11000 5.29900
C 0.12400 0.39700 6.78700
H 1.16800 0.03300 7.73300
N -0.18500 1.96100 -0.15200
C -0.70300 2.80000 0.77700
C -0.62000 4.15600 0.19300
C -0.18700 4.01500 -1.22500
C -0.21400 2.58300 -1.38000
C -0.88700 5.40600 0.97400
C 0.18100 5.01300 -2.27700
O 0.30300 4.69000 -3.50800
C 0.31000 6.41400 -1.83700
N -0.26500 -0.41300 -2.02900
C -0.27900 0.56900 -2.93700
C -0.19600 0.02400 -4.33200
C 0.12400 -1.53300 -4.18000
C 0.08600 -1.63200 -2.63500
C -1.45100 0.20500 -5.19700
C 1.37300 -2.07000 -4.92300
C 2.62600 -1.49000 -4.30600
N 0.15000 -2.14400 0.30300
C 0.17300 -3.13600 -0.68800
C 0.17300 -4.43800 0.00400
C 0.13300 -4.11100 1.35800
C 0.08300 -2.69500 1.50200
C 0.14900 -5.71500 -0.62300
C 0.09600 -4.62900 2.71600
O 0.20800 -5.74700 3.22100
C -0.25500 -3.42800 3.70100
C 0.71700 -3.48200 4.84800
O 1.93100 -3.25500 4.66900
O 0.03800 -3.55600 6.00300
C 0.94300 -3.58300 7.18300
H -1.85900 3.22000 2.49700
H -0.21800 2.45300 -3.47400
H 0.27600 -3.74700 -2.60500
H -1.55400 -0.94900 5.13200
H -1.58500 1.83100 4.66500
H -3.48400 -0.37700 3.96900
H -3.51100 1.02700 2.85800
H -3.85200 1.30100 4.54300
H 0.66900 1.09600 4.96600
H 1.13000 -0.63900 5.18900
H -0.84400 0.02600 7.12500
H 0.06200 1.47700 6.92100
H -1.34400 5.18600 1.93800
H -1.65100 5.96300 0.43200
H 0.00700 6.02000 1.08400
H -0.63500 6.74400 -1.40500
H 0.66500 6.97000 -2.70400
H 1.04800 6.46600 -1.03600
H 0.60800 0.50100 -4.89100
H -0.69200 -2.15600 -4.54700
H -1.26700 0.74000 -6.12900
H -2.20400 0.71400 -4.59600
H -1.96700 -0.72000 -5.45300
H 1.35600 -1.75900 -5.96700
H 1.45200 -3.15700 -4.90200
H 2.71400 -0.52200 -4.79800
H 3.48700 -2.12100 -4.52900
H 2.49500 -1.30300 -3.24000
H 0.86700 -6.33300 -0.08400
H 0.40400 -5.64200 -1.68000
H -0.89100 -5.99900 -0.46300
H -1.28300 -3.58100 4.02800
H 0.69800 -4.47800 7.75500
H 0.83300 -2.61900 7.68000
H 2.00000 -3.75400 6.97600
Mg 8.94164 0.80840 0.67229
C 8.38225 4.32240 1.13914
C 8.26620 1.29235 -2.63590
C 8.98430 -2.34285 0.30459
C 8.44752 0.41571 4.09973
N 8.40708 2.61963 -0.47920
C 8.28415 3.90984 -0.20608
C 8.12236 4.81886 -1.45390
C 7.53312 3.72621 -2.47261
C 8.13070 2.46544 -1.85130
C 6.01862 3.61168 -2.42246
C 9.49325 5.39288 -1.95705
C 9.37965 6.52876 -2.97619
H 10.36898 7.60209 -2.93531
N 9.14887 -0.29058 -0.96718
C 8.84718 0.07016 -2.23214
C 9.16160 -1.09785 -3.06944
C 9.51795 -2.23330 -2.17586
C 9.20384 -1.65965 -0.88267
C 9.18412 -1.04142 -4.56935
C 10.04117 -3.61226 -2.44216
O 10.05422 -4.51486 -1.53223
C 10.45097 -3.90245 -3.82395
N 8.53686 -0.76773 1.96625
C 8.68225 -2.04378 1.56817
C 8.60382 -2.99305 2.73998
C 8.61718 -2.06763 4.04420
C 8.61077 -0.67860 3.36897
C 7.37794 -3.90536 2.77615
C 9.70819 -2.36709 5.10848
C 11.07530 -2.03977 4.55238
N 8.67902 2.12311 2.36659
C 8.46190 1.74911 3.71086
C 8.22734 2.99098 4.47582
C 8.30204 4.00761 3.51179
C 8.54457 3.43782 2.23272
C 7.93828 3.06878 5.86741
C 8.22033 5.43237 3.28361
O 8.11851 6.42334 4.00567
C 8.14286 5.68965 1.71702
C 9.12519 6.77639 1.37565
O 10.34700 6.59028 1.51408
O 8.47879 7.77118 0.74089
C 9.41318 8.86781 0.37194
H 7.85094 1.29166 -3.64409
H 9.09805 -3.42811 0.25206
H 8.38312 0.38569 5.18952
H 7.41821 5.63350 -1.33424
H 7.91835 3.87527 -3.47797
H 5.59619 4.20207 -1.62300
H 5.80795 2.56136 -2.26918
H 5.58889 3.86639 -3.39549
H 9.99347 4.63576 -2.57454
H 10.10058 5.70802 -1.13093
H 8.36500 6.94283 -3.02051
H 9.54489 6.11688 -3.97472
H 8.71886 -0.12145 -4.94431
H 8.52994 -1.84287 -4.92934
H 10.18451 -1.18986 -4.98147
H 9.60670 -3.74657 -4.49131
H 10.87944 -4.90622 -3.79700
H 11.22229 -3.18216 -4.11870
H 9.46583 -3.64833 2.76520
H 7.67694 -2.14659 4.60948
H 7.63515 -4.98082 2.81244
H 6.76627 -3.68968 1.91020
H 6.68843 -3.72002 3.59800
H 9.71863 -3.43264 5.35068
H 9.56440 -1.82689 6.03827
H 11.33180 -2.93830 3.98323
H 11.78547 -1.86705 5.35852
H 11.02246 -1.20481 3.84407
H 8.53090 3.88268 6.26347
H 8.16087 2.13130 6.37274
H 6.86450 3.27142 5.83253
H 7.11707 5.97657 1.48248
H 9.01159 9.78905 0.80522
H 9.50215 8.82644 -0.72993
H 10.40673 8.84638 0.80420

