%nproc=24
%mem=175gb
#p cam-b3lyp/Def2SVP td=(nstates=5)

TDDFT excited states in gaussian

0 1
Mg 10.50220 0.94680 0.80454
C 11.55887 3.32664 3.27413
C 10.07025 -1.28027 3.35173
C 10.00109 -1.30091 -1.37815
C 12.07805 2.93518 -1.58476
N 10.80774 1.11911 2.98839
C 11.15287 2.09089 3.81958
C 10.98073 1.74313 5.32257
C 11.07144 0.14367 5.21123
C 10.58708 -0.02909 3.77310
C 12.49266 -0.38638 5.30350
C 9.59025 2.20171 5.88674
C 9.47441 2.17395 7.41238
H 8.67770 3.20681 8.06882
N 9.63795 -0.83222 0.96807
C 9.53220 -1.58616 2.08238
C 8.83079 -2.81282 1.67310
C 8.67729 -2.79375 0.19297
C 9.46853 -1.62595 -0.13908
C 8.31001 -3.81935 2.65753
C 7.95055 -3.68708 -0.76620
O 8.14858 -3.62007 -2.03077
C 7.07026 -4.70550 -0.17509
N 11.14845 0.71838 -1.15825
C 10.74169 -0.32455 -1.90307
C 11.10859 -0.13368 -3.35543
C 11.63490 1.37203 -3.47130
C 11.56185 1.78081 -1.98370
C 12.16976 -1.08710 -3.90433
C 10.94126 2.28108 -4.52257
C 9.51007 2.54447 -4.11306
N 11.45983 2.88338 0.77907
C 12.07617 3.51575 -0.32289
C 12.68639 4.76472 0.17723
C 12.40024 4.76090 1.55077
C 11.68113 3.58216 1.88686
C 13.43432 5.69417 -0.59920
C 12.55220 5.48081 2.79469
O 12.99694 6.58332 3.11155
C 12.12394 4.52285 3.98855
C 11.20632 5.29445 4.89691
O 10.09029 5.67013 4.49699
O 11.70334 5.27277 6.14706
C 10.82231 6.01577 7.08703
H 10.11863 -2.12130 4.04399
H 9.76085 -1.99094 -2.19032
H 12.50255 3.65785 -2.28492
H 11.76686 2.11609 5.96806
H 10.38806 -0.33991 5.90442
H 13.22052 0.41131 5.31025
H 12.62899 -1.01561 4.43371
H 12.59375 -1.04508 6.17082
H 8.83315 1.45062 5.62713
H 9.33447 3.17774 5.52263
H 10.45282 2.07646 7.89834
H 8.93908 1.26686 7.70329
H 8.71719 -3.64790 3.66163
H 8.71474 -4.79368 2.36303
H 7.21946 -3.87698 2.66397
H 7.65159 -5.34787 0.48207
H 6.57118 -5.18577 -1.01897
H 6.32652 -4.20294 0.45331
H 10.24070 -0.25258 -3.99240
H 12.69650 1.41179 -3.75635
H 11.82634 -1.66210 -4.78496
H 12.47297 -1.75482 -3.10886
H 13.11164 -0.61818 -4.18394
H 10.89914 1.77628 -5.49084
H 11.44708 3.22864 -4.67512
H 8.98209 1.65804 -4.47716
H 9.13613 3.44937 -4.58778
H 9.41000 2.56262 -3.02159
H 13.10066 6.68165 -0.30930
H 13.29619 5.52394 -1.66490
H 14.44858 5.44959 -0.27252
H 13.03502 4.20774 4.49867
H 11.44261 6.77438 7.57429
H 10.36313 5.24721 7.73682
H 10.03647 6.62764 6.65981

