%nproc=24
%mem=175gb
#p cam-b3lyp/Def2SVP td=(nstates=5)

TDDFT excited states in gaussian

0 1
Mg 0.00000 0.00000 0.00000
C -0.21700 -2.21800 2.80100
C -1.25500 2.44200 2.02600
C -0.24500 1.85000 -2.56400
C 0.14600 -2.82400 -2.03700
N -0.61700 -0.00900 2.12600
C -0.59400 -0.90800 3.10500
C -0.93600 -0.30900 4.50200
C -1.77300 0.96400 4.03200
C -1.15500 1.16800 2.66000
C -3.26300 0.68500 3.86300
C 0.34500 0.11000 5.29900
C 0.12400 0.39700 6.78700
H 1.16800 0.03300 7.73300
N -0.18500 1.96100 -0.15200
C -0.70300 2.80000 0.77700
C -0.62000 4.15600 0.19300
C -0.18700 4.01500 -1.22500
C -0.21400 2.58300 -1.38000
C -0.88700 5.40600 0.97400
C 0.18100 5.01300 -2.27700
O 0.30300 4.69000 -3.50800
C 0.31000 6.41400 -1.83700
N -0.26500 -0.41300 -2.02900
C -0.27900 0.56900 -2.93700
C -0.19600 0.02400 -4.33200
C 0.12400 -1.53300 -4.18000
C 0.08600 -1.63200 -2.63500
C -1.45100 0.20500 -5.19700
C 1.37300 -2.07000 -4.92300
C 2.62600 -1.49000 -4.30600
N 0.15000 -2.14400 0.30300
C 0.17300 -3.13600 -0.68800
C 0.17300 -4.43800 0.00400
C 0.13300 -4.11100 1.35800
C 0.08300 -2.69500 1.50200
C 0.14900 -5.71500 -0.62300
C 0.09600 -4.62900 2.71600
O 0.20800 -5.74700 3.22100
C -0.25500 -3.42800 3.70100
C 0.71700 -3.48200 4.84800
O 1.93100 -3.25500 4.66900
O 0.03800 -3.55600 6.00300
C 0.94300 -3.58300 7.18300
H -1.85900 3.22000 2.49700
H -0.21800 2.45300 -3.47400
H 0.27600 -3.74700 -2.60500
H -1.55400 -0.94900 5.13200
H -1.58500 1.83100 4.66500
H -3.48400 -0.37700 3.96900
H -3.51100 1.02700 2.85800
H -3.85200 1.30100 4.54300
H 0.66900 1.09600 4.96600
H 1.13000 -0.63900 5.18900
H -0.84400 0.02600 7.12500
H 0.06200 1.47700 6.92100
H -1.34400 5.18600 1.93800
H -1.65100 5.96300 0.43200
H 0.00700 6.02000 1.08400
H -0.63500 6.74400 -1.40500
H 0.66500 6.97000 -2.70400
H 1.04800 6.46600 -1.03600
H 0.60800 0.50100 -4.89100
H -0.69200 -2.15600 -4.54700
H -1.26700 0.74000 -6.12900
H -2.20400 0.71400 -4.59600
H -1.96700 -0.72000 -5.45300
H 1.35600 -1.75900 -5.96700
H 1.45200 -3.15700 -4.90200
H 2.71400 -0.52200 -4.79800
H 3.48700 -2.12100 -4.52900
H 2.49500 -1.30300 -3.24000
H 0.86700 -6.33300 -0.08400
H 0.40400 -5.64200 -1.68000
H -0.89100 -5.99900 -0.46300
H -1.28300 -3.58100 4.02800
H 0.69800 -4.47800 7.75500
H 0.83300 -2.61900 7.68000
H 2.00000 -3.75400 6.97600
Mg 10.51852 0.93960 0.80144
C 10.72177 -1.19624 -2.07536
C 9.74702 -1.83854 2.62389
C 9.89121 2.84693 3.25826
C 10.17400 3.62691 -1.39067
N 10.29403 -1.18657 0.23462
C 10.45567 -1.88958 -0.87623
C 10.40430 -3.42815 -0.67691
C 9.53999 -3.46662 0.67600
C 9.90501 -2.09432 1.23835
C 8.04050 -3.49915 0.43148
C 11.82878 -4.05149 -0.46642
C 11.88553 -5.57693 -0.57404
H 13.07429 -6.18956 -1.16055
N 10.39127 0.53649 2.74048
C 10.08985 -0.65087 3.30669
C 10.10429 -0.41908 4.75936
C 10.27672 1.03937 4.99997
C 10.16989 1.54437 3.64584
C 10.04221 -1.53456 5.76200
C 10.48830 1.84729 6.24443
O 10.37416 3.12393 6.24594
C 10.74101 1.09290 7.48076
N 9.88280 2.91509 0.92639
C 9.73802 3.52068 2.11812
C 9.54167 5.00888 1.95348
C 9.82745 5.31170 0.40939
C 10.06269 3.86992 -0.09193
C 8.15976 5.54315 2.32933
C 10.89957 6.38938 0.09026
C 12.26644 5.89727 0.50844
N 10.63936 1.22836 -1.33633
C 10.43639 2.43139 -2.04738
C 10.51047 2.10454 -3.48617
C 10.73023 0.71909 -3.51287
C 10.76883 0.21463 -2.18490
C 10.33280 3.02383 -4.55830
C 10.92773 -0.43305 -4.36275
O 11.07732 -0.60525 -5.57175
C 10.80488 -1.74437 -3.47295
C 11.96519 -2.64185 -3.80570
O 13.12925 -2.29536 -3.53825
O 11.49715 -3.84562 -4.18286
C 12.61091 -4.77441 -4.51258
H 9.27701 -2.60365 3.24243
H 9.77665 3.56673 4.07204
H 10.17443 4.42515 -2.13598
H 9.89105 -3.97097 -1.46157
H 9.88269 -4.25479 1.34136
H 7.79982 -3.37134 -0.61345
H 7.62935 -2.68692 1.01652
H 7.61091 -4.41605 0.84509
H 12.12288 -3.92615 0.58360
H 12.53920 -3.61495 -1.14123
H 10.97650 -5.99238 -1.02572
H 11.89888 -5.99575 0.43513
H 9.75234 -2.48236 5.29183
H 9.21613 -1.30586 6.44402
H 10.96263 -1.63153 6.34174
H 9.90578 0.42350 7.67247
H 10.95559 1.84445 8.24300
H 11.62312 0.46049 7.33060
H 10.25099 5.56166 2.55714
H 8.92897 5.68111 -0.10646
H 8.19299 6.33406 3.10227
H 7.55131 4.71240 2.66125
H 7.57667 5.93969 1.49989
H 10.70693 7.29756 0.66667
H 10.92907 6.67257 -0.95660
H 12.29662 6.13093 1.57689
H 13.04686 6.42742 -0.03372
H 12.34072 4.80831 0.40694
H 11.10361 2.80651 -5.28571
H 10.39039 4.05382 -4.21253
H 9.32332 2.75486 -4.88058
H 9.84680 -2.21026 -3.70662
H 12.43501 -5.13553 -5.53058
H 12.61908 -5.52984 -3.70449
H 13.60449 -4.35206 -4.60672

