%nproc=24
%mem=175gb
#p cam-b3lyp/Def2SVP td=(nstates=5)

TDDFT excited states in gaussian

0 1
Mg 10.51889 0.94328 0.79222
C 10.29038 3.38591 -1.82702
C 10.03197 -1.44370 -1.59522
C 10.26536 -1.19474 3.12288
C 9.84705 3.50857 3.05355
N 10.21389 1.07810 -1.39435
C 10.20776 2.05552 -2.28819
C 10.18827 1.57676 -3.76466
C 9.53667 0.12653 -3.53862
C 9.98063 -0.11907 -2.09805
C 8.01749 0.13702 -3.57504
C 11.62878 1.47006 -4.37749
C 11.67015 1.30814 -5.89862
H 12.75809 1.94361 -6.63689
N 10.68423 -1.03383 0.74487
C 10.47223 -1.84300 -0.31418
C 10.70414 -3.21176 0.17252
C 10.90936 -3.15739 1.64549
C 10.60021 -1.76529 1.90350
C 10.79415 -4.39703 -0.74424
C 11.30443 -4.19072 2.65660
O 11.19064 -3.97893 3.91558
C 11.74038 -5.49168 2.12846
N 9.90728 1.08398 2.77425
C 9.94230 0.01284 3.58625
C 9.72211 0.41221 5.02584
C 9.77282 2.01058 5.04084
C 9.93154 2.27295 3.52712
C 8.41170 -0.06106 5.65452
C 10.78397 2.67350 6.01593
C 12.19855 2.37998 5.57074
N 10.31751 3.09210 0.69181
C 10.00910 3.97045 1.75363
C 9.86687 5.32165 1.17359
C 10.08141 5.13035 -0.19968
C 10.31919 3.75369 -0.46004
C 9.52958 6.50374 1.89124
C 10.15028 5.77831 -1.48968
O 10.11703 6.94509 -1.87860
C 10.16347 4.65850 -2.61761
C 11.26159 4.99165 -3.59007
O 12.45226 4.96593 -3.23198
O 10.74338 5.07233 -4.82915
C 11.79596 5.39003 -5.83064
H 9.66074 -2.25253 -2.22519
H 10.27347 -1.87329 3.97903
H 9.73497 4.37731 3.70577
H 9.56366 2.16619 -4.42512
H 9.97600 -0.61198 -4.20417
H 7.62272 1.14069 -3.62939
H 7.69798 -0.34622 -2.66102
H 7.65563 -0.49392 -4.39193
H 12.07691 0.51498 -4.07462
H 12.22957 2.30989 -4.08702
H 10.70405 1.53826 -6.36406
H 11.83508 0.25323 -6.13094
H 10.43792 -4.15347 -1.75279
H 10.07948 -5.14105 -0.37606
H 11.79119 -4.84237 -0.76028
H 10.94396 -5.92211 1.52605
H 12.06616 -6.06578 2.99803
H 12.59058 -5.32938 1.45657
H 10.51342 0.02955 5.65869
H 8.80680 2.44614 5.33568
H 8.55974 -0.66525 6.56946
H 7.86067 -0.62344 4.91248
H 7.71046 0.73092 5.91187
H 10.67911 2.24821 7.01708
H 10.65588 3.74695 6.10700
H 12.38840 1.38752 5.99034
H 12.88834 3.11802 5.97511
H 12.25776 2.29336 4.47957
H 10.18279 7.28579 1.52761
H 9.63743 6.36166 2.96453
H 8.48343 6.61960 1.59558
H 9.18161 4.66028 -3.09251
H 11.46971 6.28894 -6.36282
H 11.92591 4.46923 -6.42980
H 12.76380 5.70443 -5.45797

