%nproc=24
%mem=175gb
#p cam-b3lyp/Def2SVP td=(nstates=5)

TDDFT excited states in gaussian

0 1
Mg 0.00000 0.00000 0.00000
C -0.21700 -2.21800 2.80100
C -1.25500 2.44200 2.02600
C -0.24500 1.85000 -2.56400
C 0.14600 -2.82400 -2.03700
N -0.61700 -0.00900 2.12600
C -0.59400 -0.90800 3.10500
C -0.93600 -0.30900 4.50200
C -1.77300 0.96400 4.03200
C -1.15500 1.16800 2.66000
C -3.26300 0.68500 3.86300
C 0.34500 0.11000 5.29900
C 0.12400 0.39700 6.78700
H 1.16800 0.03300 7.73300
N -0.18500 1.96100 -0.15200
C -0.70300 2.80000 0.77700
C -0.62000 4.15600 0.19300
C -0.18700 4.01500 -1.22500
C -0.21400 2.58300 -1.38000
C -0.88700 5.40600 0.97400
C 0.18100 5.01300 -2.27700
O 0.30300 4.69000 -3.50800
C 0.31000 6.41400 -1.83700
N -0.26500 -0.41300 -2.02900
C -0.27900 0.56900 -2.93700
C -0.19600 0.02400 -4.33200
C 0.12400 -1.53300 -4.18000
C 0.08600 -1.63200 -2.63500
C -1.45100 0.20500 -5.19700
C 1.37300 -2.07000 -4.92300
C 2.62600 -1.49000 -4.30600
N 0.15000 -2.14400 0.30300
C 0.17300 -3.13600 -0.68800
C 0.17300 -4.43800 0.00400
C 0.13300 -4.11100 1.35800
C 0.08300 -2.69500 1.50200
C 0.14900 -5.71500 -0.62300
C 0.09600 -4.62900 2.71600
O 0.20800 -5.74700 3.22100
C -0.25500 -3.42800 3.70100
C 0.71700 -3.48200 4.84800
O 1.93100 -3.25500 4.66900
O 0.03800 -3.55600 6.00300
C 0.94300 -3.58300 7.18300
H -1.85900 3.22000 2.49700
H -0.21800 2.45300 -3.47400
H 0.27600 -3.74700 -2.60500
H -1.55400 -0.94900 5.13200
H -1.58500 1.83100 4.66500
H -3.48400 -0.37700 3.96900
H -3.51100 1.02700 2.85800
H -3.85200 1.30100 4.54300
H 0.66900 1.09600 4.96600
H 1.13000 -0.63900 5.18900
H -0.84400 0.02600 7.12500
H 0.06200 1.47700 6.92100
H -1.34400 5.18600 1.93800
H -1.65100 5.96300 0.43200
H 0.00700 6.02000 1.08400
H -0.63500 6.74400 -1.40500
H 0.66500 6.97000 -2.70400
H 1.04800 6.46600 -1.03600
H 0.60800 0.50100 -4.89100
H -0.69200 -2.15600 -4.54700
H -1.26700 0.74000 -6.12900
H -2.20400 0.71400 -4.59600
H -1.96700 -0.72000 -5.45300
H 1.35600 -1.75900 -5.96700
H 1.45200 -3.15700 -4.90200
H 2.71400 -0.52200 -4.79800
H 3.48700 -2.12100 -4.52900
H 2.49500 -1.30300 -3.24000
H 0.86700 -6.33300 -0.08400
H 0.40400 -5.64200 -1.68000
H -0.89100 -5.99900 -0.46300
H -1.28300 -3.58100 4.02800
H 0.69800 -4.47800 7.75500
H 0.83300 -2.61900 7.68000
H 2.00000 -3.75400 6.97600
Mg 8.92584 0.80284 0.68499
C 9.40870 3.42972 3.08195
C 9.11784 -1.39943 3.28263
C 8.95411 -1.55094 -1.44253
C 9.90427 3.06245 -1.78129
N 9.22575 1.09848 2.85638
C 9.33551 2.14536 3.66032
C 9.28794 1.80214 5.17343
C 9.77218 0.27335 5.08856
C 9.31533 -0.04921 3.66732
C 11.28232 0.11599 5.15212
C 7.83952 1.91381 5.76642
C 7.76717 1.89498 7.29487
H 6.75242 2.71266 7.95376
N 8.53621 -1.13078 0.90377
C 8.64583 -1.86017 2.03393
C 8.26379 -3.23230 1.66585
C 8.07852 -3.28780 0.19028
C 8.54624 -1.96822 -0.18394
C 8.03176 -4.31266 2.68193
C 7.57699 -4.35678 -0.73273
O 7.72476 -4.27318 -2.00317
C 6.99139 -5.54761 -0.09990
N 9.56619 0.69504 -1.29002
C 9.41637 -0.43398 -2.00471
C 9.69271 -0.19298 -3.46961
C 9.82433 1.39307 -3.62673
C 9.68373 1.80665 -2.14532
C 10.94602 -0.86535 -4.02956
C 8.90345 2.07526 -4.67519
C 7.46095 1.98406 -4.23216
N 9.36957 2.91560 0.59886
C 9.78487 3.65461 -0.53051
C 10.07503 5.02785 -0.06958
C 9.82854 4.98614 1.31100
C 9.43347 3.67402 1.68751
C 10.55067 6.09512 -0.88248
C 9.82296 5.75107 2.53719
O 9.98547 6.93689 2.82205
C 9.67292 4.74582 3.75922
C 8.61168 5.28654 4.67787
O 7.42887 5.36293 4.30139
O 9.12523 5.41943 5.91439
C 8.10722 5.94233 6.86416
H 9.38930 -2.18499 3.98839
H 8.87607 -2.29846 -2.23537
H 10.11997 3.85088 -2.50553
H 9.96997 2.37447 5.79071
H 9.24607 -0.34816 5.80848
H 11.78826 1.06963 5.12490
H 11.55247 -0.48035 4.29047
H 11.56313 -0.47567 6.02814
H 7.28821 0.99190 5.54085
H 7.34068 2.78640 5.39177
H 8.74922 2.05577 7.75602
H 7.48132 0.89052 7.61639
H 8.40487 -4.02107 3.67145
H 8.66021 -5.16247 2.39427
H 6.99043 -4.63967 2.71873
H 7.72855 -6.00906 0.55288
H 6.60976 -6.15721 -0.92125
H 6.15955 -5.23089 0.53911
H 8.86837 -0.53945 -4.08077
H 10.83609 1.68883 -3.94090
H 10.73792 -1.52882 -4.89013
H 11.42320 -1.41719 -3.23062
H 11.73497 -0.18371 -4.34281
H 8.96768 1.55260 -5.63272
H 9.15361 3.11490 -4.85836
H 7.16296 0.98561 -4.56589
H 6.86306 2.75571 -4.71291
H 7.38306 2.00311 -3.13890
H 9.98765 6.97523 -0.60157
H 10.43642 5.87018 -1.94084
H 11.60068 6.11858 -0.57884
H 10.64456 4.67974 4.25026
H 8.52913 6.84298 7.32080
H 7.86829 5.09963 7.53981
H 7.18462 6.32891 6.44725

