%nproc=24
%mem=175gb
#p cam-b3lyp/Def2SVP td=(nstates=5)

TDDFT excited states in gaussian

0 1
Mg 0.00000 0.00000 0.00000
C -0.21700 -2.21800 2.80100
C -1.25500 2.44200 2.02600
C -0.24500 1.85000 -2.56400
C 0.14600 -2.82400 -2.03700
N -0.61700 -0.00900 2.12600
C -0.59400 -0.90800 3.10500
C -0.93600 -0.30900 4.50200
C -1.77300 0.96400 4.03200
C -1.15500 1.16800 2.66000
C -3.26300 0.68500 3.86300
C 0.34500 0.11000 5.29900
C 0.12400 0.39700 6.78700
H 1.16800 0.03300 7.73300
N -0.18500 1.96100 -0.15200
C -0.70300 2.80000 0.77700
C -0.62000 4.15600 0.19300
C -0.18700 4.01500 -1.22500
C -0.21400 2.58300 -1.38000
C -0.88700 5.40600 0.97400
C 0.18100 5.01300 -2.27700
O 0.30300 4.69000 -3.50800
C 0.31000 6.41400 -1.83700
N -0.26500 -0.41300 -2.02900
C -0.27900 0.56900 -2.93700
C -0.19600 0.02400 -4.33200
C 0.12400 -1.53300 -4.18000
C 0.08600 -1.63200 -2.63500
C -1.45100 0.20500 -5.19700
C 1.37300 -2.07000 -4.92300
C 2.62600 -1.49000 -4.30600
N 0.15000 -2.14400 0.30300
C 0.17300 -3.13600 -0.68800
C 0.17300 -4.43800 0.00400
C 0.13300 -4.11100 1.35800
C 0.08300 -2.69500 1.50200
C 0.14900 -5.71500 -0.62300
C 0.09600 -4.62900 2.71600
O 0.20800 -5.74700 3.22100
C -0.25500 -3.42800 3.70100
C 0.71700 -3.48200 4.84800
O 1.93100 -3.25500 4.66900
O 0.03800 -3.55600 6.00300
C 0.94300 -3.58300 7.18300
H -1.85900 3.22000 2.49700
H -0.21800 2.45300 -3.47400
H 0.27600 -3.74700 -2.60500
H -1.55400 -0.94900 5.13200
H -1.58500 1.83100 4.66500
H -3.48400 -0.37700 3.96900
H -3.51100 1.02700 2.85800
H -3.85200 1.30100 4.54300
H 0.66900 1.09600 4.96600
H 1.13000 -0.63900 5.18900
H -0.84400 0.02600 7.12500
H 0.06200 1.47700 6.92100
H -1.34400 5.18600 1.93800
H -1.65100 5.96300 0.43200
H 0.00700 6.02000 1.08400
H -0.63500 6.74400 -1.40500
H 0.66500 6.97000 -2.70400
H 1.04800 6.46600 -1.03600
H 0.60800 0.50100 -4.89100
H -0.69200 -2.15600 -4.54700
H -1.26700 0.74000 -6.12900
H -2.20400 0.71400 -4.59600
H -1.96700 -0.72000 -5.45300
H 1.35600 -1.75900 -5.96700
H 1.45200 -3.15700 -4.90200
H 2.71400 -0.52200 -4.79800
H 3.48700 -2.12100 -4.52900
H 2.49500 -1.30300 -3.24000
H 0.86700 -6.33300 -0.08400
H 0.40400 -5.64200 -1.68000
H -0.89100 -5.99900 -0.46300
H -1.28300 -3.58100 4.02800
H 0.69800 -4.47800 7.75500
H 0.83300 -2.61900 7.68000
H 2.00000 -3.75400 6.97600
Mg 13.14505 1.18505 1.00614
C 13.08103 -1.92275 2.79961
C 11.91476 2.66403 3.82281
C 12.76433 3.84718 -0.67778
C 13.26713 -0.67615 -1.93779
N 12.60861 0.37053 2.99134
C 12.68478 -0.81483 3.57739
C 12.39276 -0.79858 5.10187
C 11.50296 0.53691 5.16203
C 12.06227 1.25863 3.93771
C 10.02215 0.28429 4.93247
C 13.69927 -0.65742 5.95925
C 13.52291 -0.94398 7.45208
H 14.61595 -1.59392 8.16994
N 12.91417 3.06250 1.60654
C 12.42105 3.48351 2.79012
C 12.43869 4.95342 2.73334
C 12.82817 5.36505 1.35727
C 12.83050 4.07953 0.68830
C 12.18337 5.81724 3.93419
C 13.13387 6.69695 0.74181
O 13.21760 6.84857 -0.52817
C 13.23988 7.83667 1.66446
N 12.81837 1.53961 -1.01622
C 12.74207 2.79386 -1.49470
C 12.78085 2.80512 -3.00425
C 13.14411 1.30867 -3.43586
C 13.16569 0.64174 -2.04297
C 11.48964 3.23586 -3.69969
C 14.37617 1.12314 -4.36337
C 15.64135 1.48579 -3.61962
N 13.35641 -0.90324 0.49388
C 13.35691 -1.46823 -0.80029
C 13.41176 -2.93522 -0.63487
C 13.41618 -3.12428 0.75535
C 13.34712 -1.86492 1.41015
C 13.40161 -3.89214 -1.68859
C 13.45283 -4.10332 1.81782
O 13.60098 -5.32359 1.86990
C 13.10984 -3.37489 3.18828
C 14.12528 -3.80655 4.21056
O 15.32255 -3.49548 4.08263
O 13.48602 -4.32492 5.27500
C 14.45059 -4.75745 6.32110
H 11.31894 3.18613 4.57200
H 12.74387 4.73971 -1.30742
H 13.40700 -1.32210 -2.80719
H 11.81965 -1.64382 5.46365
H 11.70537 1.10602 6.06564
H 9.82731 -0.73922 4.64855
H 9.72802 0.95941 4.13953
H 9.44745 0.58516 5.81311
H 13.98574 0.40122 6.00371
H 14.48325 -1.27320 5.56325
H 12.57104 -1.44512 7.66596
H 13.44919 0.00879 7.98199
H 11.76158 5.23742 4.76444
H 11.38738 6.51818 3.66045
H 13.06477 6.38515 4.23961
H 12.30751 7.94476 2.21351
H 13.55059 8.68307 1.04888
H 14.01725 7.61647 2.40461
H 13.55320 3.47258 -3.36630
H 12.32490 0.83642 -3.99773
H 11.62702 4.09681 -4.38083
H 10.75333 3.46506 -2.94084
H 10.99314 2.45667 -4.27548
H 14.31285 1.80187 -5.21746
H 14.47218 0.11711 -4.75793
H 15.68337 2.57445 -3.72032
H 16.50593 1.01305 -4.08120
H 15.54936 1.25686 -2.55155
H 14.14577 -4.63704 -1.43987
H 13.60936 -3.42708 -2.65001
H 12.37018 -4.24791 -1.61903
H 12.09690 -3.66569 3.46928
H 14.24388 -5.81164 6.53004
H 14.32440 -4.04408 7.15712
H 15.49919 -4.79717 6.05034

