%nproc=24
%mem=175gb
#p cam-b3lyp/Def2SVP td=(nstates=5)

TDDFT excited states in gaussian

0 1
Mg 0.00000 0.00000 0.00000
C -0.21700 -2.21800 2.80100
C -1.25500 2.44200 2.02600
C -0.24500 1.85000 -2.56400
C 0.14600 -2.82400 -2.03700
N -0.61700 -0.00900 2.12600
C -0.59400 -0.90800 3.10500
C -0.93600 -0.30900 4.50200
C -1.77300 0.96400 4.03200
C -1.15500 1.16800 2.66000
C -3.26300 0.68500 3.86300
C 0.34500 0.11000 5.29900
C 0.12400 0.39700 6.78700
H 1.16800 0.03300 7.73300
N -0.18500 1.96100 -0.15200
C -0.70300 2.80000 0.77700
C -0.62000 4.15600 0.19300
C -0.18700 4.01500 -1.22500
C -0.21400 2.58300 -1.38000
C -0.88700 5.40600 0.97400
C 0.18100 5.01300 -2.27700
O 0.30300 4.69000 -3.50800
C 0.31000 6.41400 -1.83700
N -0.26500 -0.41300 -2.02900
C -0.27900 0.56900 -2.93700
C -0.19600 0.02400 -4.33200
C 0.12400 -1.53300 -4.18000
C 0.08600 -1.63200 -2.63500
C -1.45100 0.20500 -5.19700
C 1.37300 -2.07000 -4.92300
C 2.62600 -1.49000 -4.30600
N 0.15000 -2.14400 0.30300
C 0.17300 -3.13600 -0.68800
C 0.17300 -4.43800 0.00400
C 0.13300 -4.11100 1.35800
C 0.08300 -2.69500 1.50200
C 0.14900 -5.71500 -0.62300
C 0.09600 -4.62900 2.71600
O 0.20800 -5.74700 3.22100
C -0.25500 -3.42800 3.70100
C 0.71700 -3.48200 4.84800
O 1.93100 -3.25500 4.66900
O 0.03800 -3.55600 6.00300
C 0.94300 -3.58300 7.18300
H -1.85900 3.22000 2.49700
H -0.21800 2.45300 -3.47400
H 0.27600 -3.74700 -2.60500
H -1.55400 -0.94900 5.13200
H -1.58500 1.83100 4.66500
H -3.48400 -0.37700 3.96900
H -3.51100 1.02700 2.85800
H -3.85200 1.30100 4.54300
H 0.66900 1.09600 4.96600
H 1.13000 -0.63900 5.18900
H -0.84400 0.02600 7.12500
H 0.06200 1.47700 6.92100
H -1.34400 5.18600 1.93800
H -1.65100 5.96300 0.43200
H 0.00700 6.02000 1.08400
H -0.63500 6.74400 -1.40500
H 0.66500 6.97000 -2.70400
H 1.04800 6.46600 -1.03600
H 0.60800 0.50100 -4.89100
H -0.69200 -2.15600 -4.54700
H -1.26700 0.74000 -6.12900
H -2.20400 0.71400 -4.59600
H -1.96700 -0.72000 -5.45300
H 1.35600 -1.75900 -5.96700
H 1.45200 -3.15700 -4.90200
H 2.71400 -0.52200 -4.79800
H 3.48700 -2.12100 -4.52900
H 2.49500 -1.30300 -3.24000
H 0.86700 -6.33300 -0.08400
H 0.40400 -5.64200 -1.68000
H -0.89100 -5.99900 -0.46300
H -1.28300 -3.58100 4.02800
H 0.69800 -4.47800 7.75500
H 0.83300 -2.61900 7.68000
H 2.00000 -3.75400 6.97600
Mg 8.92409 0.80725 0.67977
C 7.24601 -2.00782 -0.78258
C 7.43940 2.74157 -1.70532
C 10.73049 3.22541 1.65794
C 11.11392 -1.45260 2.17759
N 7.54122 0.31488 -0.97476
C 6.92400 -0.77893 -1.39543
C 5.84488 -0.53050 -2.48324
C 6.40919 0.85373 -3.07004
C 7.14934 1.35972 -1.83358
C 7.42065 0.66546 -4.18845
C 4.41038 -0.35325 -1.87266
C 3.26710 -0.41578 -2.88792
H 2.00530 -1.02629 -2.47851
N 8.71427 2.76116 0.40270
C 8.06083 3.37440 -0.60637
C 8.21438 4.81771 -0.36674
C 9.15070 5.00674 0.77444
C 9.59403 3.64251 0.98043
C 7.44660 5.85588 -1.13234
C 9.58604 6.21710 1.54366
O 10.58909 6.18342 2.34091
C 8.86187 7.46601 1.26568
N 10.79254 0.89443 1.58732
C 11.32734 2.07142 1.95692
C 12.54076 1.86826 2.83255
C 12.56746 0.30613 3.17403
C 11.36280 -0.15877 2.32665
C 13.87967 2.27786 2.21941
C 12.60917 -0.08518 4.67663
C 11.30881 0.29759 5.34592
N 9.05614 -1.34141 0.86390
C 10.06928 -2.08130 1.51212
C 9.78579 -3.51107 1.27166
C 8.63118 -3.50307 0.47460
C 8.23538 -2.16247 0.21840
C 10.57709 -4.60382 1.72538
C 7.66328 -4.32367 -0.21714
O 7.43899 -5.53147 -0.28544
C 6.79595 -3.38995 -1.16702
C 5.34679 -3.73717 -0.96234
O 4.79395 -3.52339 0.13094
O 4.79918 -4.05961 -2.14831
C 3.35946 -4.40113 -1.99872
H 7.20781 3.40023 -2.54283
H 11.32826 4.02026 2.11002
H 11.69377 -2.22170 2.69231
H 5.80820 -1.27870 -3.26594
H 5.60018 1.53008 -3.33353
H 7.68230 -0.37339 -4.32437
H 8.29060 1.23986 -3.89808
H 7.05188 1.12263 -5.11112
H 4.29517 0.68092 -1.52341
H 4.23843 -1.06679 -1.09041
H 3.59465 -0.82079 -3.85312
H 2.95167 0.60467 -3.11860
H 6.96170 5.42612 -2.01754
H 8.17996 6.56035 -1.53948
H 6.73981 6.40420 -0.50587
H 8.95275 7.70877 0.20962
H 9.25575 8.19632 1.97518
H 7.79598 7.30319 1.46058
H 12.44995 2.42817 3.75523
H 13.45619 -0.18759 2.75422
H 14.42711 3.02430 2.82540
H 13.69689 2.65733 1.22285
H 14.57142 1.45852 2.03136
H 13.39789 0.46962 5.19071
H 12.79696 -1.14066 4.84305
H 11.45402 1.35649 5.57985
H 11.15596 -0.28892 6.24963
H 10.46944 0.22707 4.64440
H 9.89023 -5.35195 2.09823
H 11.28210 -4.29233 2.49331
H 11.07961 -4.88043 0.79466
H 7.12017 -3.57386 -2.19202
H 3.22233 -5.40038 -2.42344
H 2.80447 -3.57097 -2.47473
H 2.98019 -4.54462 -0.99372

