%nproc=24
%mem=175gb
#p cam-b3lyp/Def2SVP td=(nstates=5)

TDDFT excited states in gaussian

0 1
Mg 0.00000 0.00000 0.00000
C -0.21700 -2.21800 2.80100
C -1.25500 2.44200 2.02600
C -0.24500 1.85000 -2.56400
C 0.14600 -2.82400 -2.03700
N -0.61700 -0.00900 2.12600
C -0.59400 -0.90800 3.10500
C -0.93600 -0.30900 4.50200
C -1.77300 0.96400 4.03200
C -1.15500 1.16800 2.66000
C -3.26300 0.68500 3.86300
C 0.34500 0.11000 5.29900
C 0.12400 0.39700 6.78700
H 1.16800 0.03300 7.73300
N -0.18500 1.96100 -0.15200
C -0.70300 2.80000 0.77700
C -0.62000 4.15600 0.19300
C -0.18700 4.01500 -1.22500
C -0.21400 2.58300 -1.38000
C -0.88700 5.40600 0.97400
C 0.18100 5.01300 -2.27700
O 0.30300 4.69000 -3.50800
C 0.31000 6.41400 -1.83700
N -0.26500 -0.41300 -2.02900
C -0.27900 0.56900 -2.93700
C -0.19600 0.02400 -4.33200
C 0.12400 -1.53300 -4.18000
C 0.08600 -1.63200 -2.63500
C -1.45100 0.20500 -5.19700
C 1.37300 -2.07000 -4.92300
C 2.62600 -1.49000 -4.30600
N 0.15000 -2.14400 0.30300
C 0.17300 -3.13600 -0.68800
C 0.17300 -4.43800 0.00400
C 0.13300 -4.11100 1.35800
C 0.08300 -2.69500 1.50200
C 0.14900 -5.71500 -0.62300
C 0.09600 -4.62900 2.71600
O 0.20800 -5.74700 3.22100
C -0.25500 -3.42800 3.70100
C 0.71700 -3.48200 4.84800
O 1.93100 -3.25500 4.66900
O 0.03800 -3.55600 6.00300
C 0.94300 -3.58300 7.18300
H -1.85900 3.22000 2.49700
H -0.21800 2.45300 -3.47400
H 0.27600 -3.74700 -2.60500
H -1.55400 -0.94900 5.13200
H -1.58500 1.83100 4.66500
H -3.48400 -0.37700 3.96900
H -3.51100 1.02700 2.85800
H -3.85200 1.30100 4.54300
H 0.66900 1.09600 4.96600
H 1.13000 -0.63900 5.18900
H -0.84400 0.02600 7.12500
H 0.06200 1.47700 6.92100
H -1.34400 5.18600 1.93800
H -1.65100 5.96300 0.43200
H 0.00700 6.02000 1.08400
H -0.63500 6.74400 -1.40500
H 0.66500 6.97000 -2.70400
H 1.04800 6.46600 -1.03600
H 0.60800 0.50100 -4.89100
H -0.69200 -2.15600 -4.54700
H -1.26700 0.74000 -6.12900
H -2.20400 0.71400 -4.59600
H -1.96700 -0.72000 -5.45300
H 1.35600 -1.75900 -5.96700
H 1.45200 -3.15700 -4.90200
H 2.71400 -0.52200 -4.79800
H 3.48700 -2.12100 -4.52900
H 2.49500 -1.30300 -3.24000
H 0.86700 -6.33300 -0.08400
H 0.40400 -5.64200 -1.68000
H -0.89100 -5.99900 -0.46300
H -1.28300 -3.58100 4.02800
H 0.69800 -4.47800 7.75500
H 0.83300 -2.61900 7.68000
H 2.00000 -3.75400 6.97600
Mg 8.93487 0.80905 0.68814
C 7.29113 -1.61069 2.76709
C 6.53928 3.03972 1.64726
C 10.08905 2.82613 -1.47212
C 10.47203 -1.85222 -0.95517
N 7.19280 0.62038 2.03790
C 6.70324 -0.32968 2.82025
C 5.56784 0.13989 3.76890
C 5.05882 1.40807 2.92542
C 6.34952 1.73921 2.17902
C 3.99079 1.06060 1.90174
C 6.10593 0.56681 5.17965
C 5.02911 0.74119 6.25287
H 5.34941 0.36678 7.62753
N 8.71233 2.77371 0.51741
C 7.69061 3.52066 0.98584
C 7.98622 4.90439 0.58325
C 9.18181 4.88988 -0.30280
C 9.36567 3.46266 -0.47406
C 7.21553 6.08445 1.09990
C 10.01334 5.98027 -0.90761
O 10.86183 5.74244 -1.83838
C 9.73867 7.34809 -0.44380
N 9.94405 0.52649 -1.10743
C 10.38099 1.57475 -1.82727
C 11.31336 1.12953 -2.92856
C 11.60342 -0.41771 -2.64660
C 10.67740 -0.63099 -1.42906
C 10.78718 1.29690 -4.35387
C 13.09218 -0.84418 -2.52662
C 13.70294 -0.24166 -1.28190
N 9.05397 -1.33031 0.96559
C 9.73069 -2.26032 0.14631
C 9.42769 -3.60656 0.67382
C 8.57038 -3.36578 1.75804
C 8.33818 -1.96946 1.88407
C 9.88658 -4.83747 0.12574
C 7.80054 -3.97605 2.81805
O 7.67997 -5.11919 3.25673
C 6.83709 -2.87587 3.44073
C 6.95178 -2.95213 4.93858
O 8.02026 -2.66431 5.50613
O 5.72795 -3.13993 5.46522
C 5.78837 -3.21109 6.94951
H 5.71300 3.74892 1.70357
H 10.59892 3.48541 -2.17841
H 10.99123 -2.72729 -1.35186
H 4.75975 -0.57037 3.89660
H 4.77492 2.22890 3.57887
H 3.83452 -0.00540 1.82853
H 4.34657 1.45641 0.95950
H 3.06540 1.59933 2.12475
H 6.48282 1.59610 5.12266
H 6.85353 -0.12000 5.52610
H 4.06994 0.30449 5.94917
H 4.81600 1.80749 6.36058
H 6.29166 5.77269 1.60257
H 6.87220 6.64937 0.22648
H 7.82102 6.74018 1.72923
H 8.69772 7.59377 -0.64009
H 10.49232 7.97601 -0.92296
H 9.87039 7.38190 0.64345
H 12.24801 1.67533 -2.88819
H 11.21578 -1.05836 -3.45229
H 11.44634 1.91447 -4.99277
H 9.79546 1.72641 -4.30337
H 10.60936 0.36773 -4.89259
H 13.66619 -0.45762 -3.37234
H 13.23311 -1.91969 -2.50644
H 13.97958 0.76614 -1.60576
H 14.57702 -0.81001 -0.97043
H 12.95531 -0.13882 -0.48684
H 10.19674 -5.45315 0.95956
H 10.70131 -4.68015 -0.57799
H 8.97554 -5.18136 -0.37125
H 5.82544 -3.09339 3.09601
H 5.32375 -4.15743 7.24318
H 5.31119 -2.28155 7.31283
H 6.76615 -3.30447 7.40742

