%nproc=24
%mem=175gb
#p cam-b3lyp/Def2SVP td=(nstates=5)

TDDFT excited states in gaussian

0 1
Mg 13.14589 1.18183 1.00565
C 11.21776 -0.36954 3.60462
C 13.71827 3.75420 3.17127
C 14.46773 2.77877 -1.39642
C 11.50699 -0.89770 -1.26046
N 12.49861 1.53182 3.09151
C 11.81971 0.84409 3.99730
C 11.85130 1.45384 5.42445
C 12.15512 2.97989 5.02727
C 12.86752 2.74882 3.69619
C 10.89972 3.79411 4.76207
C 12.99979 0.85042 6.30698
C 12.89895 1.17001 7.80011
H 13.32865 0.15635 8.75944
N 14.37059 2.74338 1.02135
C 14.48932 3.67469 1.99080
C 15.51005 4.62174 1.51607
C 15.86537 4.26537 0.11555
C 14.87836 3.23904 -0.15381
C 16.10567 5.68381 2.39395
C 16.91113 4.77419 -0.82980
O 16.88631 4.48784 -2.07888
C 17.91159 5.69325 -0.26774
N 12.85949 1.12414 -1.05274
C 13.60195 1.88541 -1.87564
C 13.41264 1.47575 -3.31672
C 12.57012 0.11724 -3.27006
C 12.33122 0.01981 -1.74729
C 12.69462 2.48925 -4.20760
C 13.17458 -1.11132 -4.00352
C 14.43017 -1.56826 -3.29635
N 11.77465 -0.48296 1.13306
C 11.19174 -1.19196 0.05992
C 10.24043 -2.15998 0.64332
C 10.31953 -1.92934 2.02500
C 11.23918 -0.87711 2.28301
C 9.41466 -3.05913 -0.08863
C 9.82626 -2.32952 3.32317
O 9.09467 -3.22890 3.73503
C 10.29151 -1.25176 4.39478
C 10.86261 -1.98760 5.57584
O 11.90489 -2.65611 5.46030
O 10.21058 -1.60687 6.68952
C 10.74867 -2.30138 7.88949
H 13.76974 4.71252 3.68883
H 14.97697 3.22204 -2.25529
H 11.02976 -1.64863 -1.89373
H 10.91543 1.38998 5.96653
H 12.82620 3.44812 5.74266
H 10.01186 3.17946 4.76926
H 11.04090 4.24349 3.78782
H 10.83264 4.62491 5.47032
H 13.94109 1.36209 6.06847
H 13.06903 -0.21102 6.16850
H 11.91142 1.56226 8.07190
H 13.58467 1.99010 8.02653
H 15.53001 5.81046 3.31913
H 15.98725 6.63716 1.86769
H 17.16682 5.51947 2.59305
H 17.40908 6.56208 0.15067
H 18.62507 5.87678 -1.07344
H 18.41875 5.19203 0.56424
H 14.36631 1.28167 -3.79207
H 11.58095 0.23502 -3.73644
H 13.28592 2.78733 -5.09394
H 12.44564 3.35470 -3.60799
H 11.71915 2.17318 -4.57332
H 13.47228 -0.83758 -5.01870
H 12.48791 -1.94741 -4.08367
H 15.19789 -0.90234 -3.70162
H 14.64556 -2.60850 -3.53202
H 14.36565 -1.37947 -2.21846
H 9.46234 -4.01164 0.42220
H 9.74018 -3.14526 -1.12323
H 8.44999 -2.55190 -0.00270
H 9.41628 -0.65987 4.66538
H 9.90451 -2.80073 8.37500
H 11.27725 -1.52402 8.47264
H 11.42201 -3.13473 7.72640

