%nproc=24
%mem=175gb
#p cam-b3lyp/Def2SVP td=(nstates=5)

TDDFT excited states in gaussian

0 1
Mg 15.77259 1.42665 1.20213
C 15.37330 0.62403 4.67710
C 14.55474 4.52801 1.93221
C 15.68711 2.01785 -1.91405
C 15.86029 -1.99837 0.56402
N 15.08754 2.33892 3.09706
C 15.03947 1.95837 4.36482
C 14.68670 3.09277 5.36394
C 13.91045 4.07028 4.35359
C 14.57882 3.65094 3.04588
C 12.42448 3.77004 4.24823
C 15.96365 3.78117 5.96186
C 15.70192 4.68306 7.17009
H 16.70572 4.73630 8.22935
N 15.67539 3.15087 0.22427
C 15.17057 4.31691 0.67900
C 15.31391 5.27601 -0.42722
C 15.79348 4.53900 -1.62787
C 15.71567 3.17391 -1.14772
C 15.08230 6.74989 -0.26148
C 16.23526 4.98758 -2.98795
O 16.38417 4.15934 -3.95473
C 16.39813 6.43609 -3.17972
N 15.56123 0.19712 -0.46098
C 15.61048 0.70331 -1.70567
C 15.71282 -0.39464 -2.73739
C 15.96678 -1.73941 -1.90993
C 15.87434 -1.17503 -0.47525
C 14.49238 -0.57543 -3.63974
C 17.21641 -2.57756 -2.29541
C 18.47555 -1.82034 -1.93962
N 15.82898 -0.37615 2.39158
C 15.83586 -1.70793 1.92211
C 15.76042 -2.58750 3.10663
C 15.69111 -1.69913 4.19037
C 15.70087 -0.36043 3.71363
C 15.71379 -4.00999 3.08488
C 15.60120 -1.58949 5.62863
O 15.64408 -2.38648 6.56496
C 15.26389 -0.08138 6.00037
C 16.19609 0.34536 7.10101
O 17.41955 0.43144 6.89518
O 15.47185 0.78835 8.14485
C 16.35235 1.23330 9.25776
H 13.97422 5.44782 2.00866
H 15.76786 2.16558 -2.99347
H 15.98147 -3.07823 0.45494
H 14.03009 2.79721 6.17344
H 14.12217 5.11363 4.57256
H 12.15637 2.87044 4.78206
H 12.22132 3.65755 3.19129
H 11.84095 4.63478 4.57693
H 16.33590 4.52702 5.24779
H 16.70895 3.05094 6.21072
H 14.70326 4.52383 7.59467
H 15.68648 5.72170 6.83096
H 14.57915 6.97382 0.68726
H 14.36005 7.04837 -1.02903
H 15.99480 7.33648 -0.38765
H 15.45610 6.93651 -2.96850
H 16.80414 6.55378 -4.18629
H 17.12281 6.80681 -2.44621
H 16.55287 -0.22571 -3.39987
H 15.13489 -2.45017 -2.02223
H 14.72978 -0.49115 -4.71706
H 13.74699 0.15572 -3.35628
H 13.95658 -1.51410 -3.50928
H 17.24589 -2.73853 -3.37586
H 17.24395 -3.55403 -1.82346
H 18.61298 -1.15370 -2.79623
H 19.31583 -2.50330 -1.83218
H 18.32032 -1.19227 -1.05470
H 16.38177 -4.35533 3.86272
H 15.99966 -4.40231 2.11116
H 14.65412 -4.17368 3.29839
H 14.21930 -0.04660 6.31215
H 16.04935 0.67375 10.14814
H 16.25185 2.33428 9.29632
H 17.40427 0.97995 9.19657

