%nproc=24
%mem=175gb
#p cam-b3lyp/Def2SVP td=(nstates=5)

TDDFT excited states in gaussian

0 1
Mg 0.00000 0.00000 0.00000
C -0.21700 -2.21800 2.80100
C -1.25500 2.44200 2.02600
C -0.24500 1.85000 -2.56400
C 0.14600 -2.82400 -2.03700
N -0.61700 -0.00900 2.12600
C -0.59400 -0.90800 3.10500
C -0.93600 -0.30900 4.50200
C -1.77300 0.96400 4.03200
C -1.15500 1.16800 2.66000
C -3.26300 0.68500 3.86300
C 0.34500 0.11000 5.29900
C 0.12400 0.39700 6.78700
H 1.16800 0.03300 7.73300
N -0.18500 1.96100 -0.15200
C -0.70300 2.80000 0.77700
C -0.62000 4.15600 0.19300
C -0.18700 4.01500 -1.22500
C -0.21400 2.58300 -1.38000
C -0.88700 5.40600 0.97400
C 0.18100 5.01300 -2.27700
O 0.30300 4.69000 -3.50800
C 0.31000 6.41400 -1.83700
N -0.26500 -0.41300 -2.02900
C -0.27900 0.56900 -2.93700
C -0.19600 0.02400 -4.33200
C 0.12400 -1.53300 -4.18000
C 0.08600 -1.63200 -2.63500
C -1.45100 0.20500 -5.19700
C 1.37300 -2.07000 -4.92300
C 2.62600 -1.49000 -4.30600
N 0.15000 -2.14400 0.30300
C 0.17300 -3.13600 -0.68800
C 0.17300 -4.43800 0.00400
C 0.13300 -4.11100 1.35800
C 0.08300 -2.69500 1.50200
C 0.14900 -5.71500 -0.62300
C 0.09600 -4.62900 2.71600
O 0.20800 -5.74700 3.22100
C -0.25500 -3.42800 3.70100
C 0.71700 -3.48200 4.84800
O 1.93100 -3.25500 4.66900
O 0.03800 -3.55600 6.00300
C 0.94300 -3.58300 7.18300
H -1.85900 3.22000 2.49700
H -0.21800 2.45300 -3.47400
H 0.27600 -3.74700 -2.60500
H -1.55400 -0.94900 5.13200
H -1.58500 1.83100 4.66500
H -3.48400 -0.37700 3.96900
H -3.51100 1.02700 2.85800
H -3.85200 1.30100 4.54300
H 0.66900 1.09600 4.96600
H 1.13000 -0.63900 5.18900
H -0.84400 0.02600 7.12500
H 0.06200 1.47700 6.92100
H -1.34400 5.18600 1.93800
H -1.65100 5.96300 0.43200
H 0.00700 6.02000 1.08400
H -0.63500 6.74400 -1.40500
H 0.66500 6.97000 -2.70400
H 1.04800 6.46600 -1.03600
H 0.60800 0.50100 -4.89100
H -0.69200 -2.15600 -4.54700
H -1.26700 0.74000 -6.12900
H -2.20400 0.71400 -4.59600
H -1.96700 -0.72000 -5.45300
H 1.35600 -1.75900 -5.96700
H 1.45200 -3.15700 -4.90200
H 2.71400 -0.52200 -4.79800
H 3.48700 -2.12100 -4.52900
H 2.49500 -1.30300 -3.24000
H 0.86700 -6.33300 -0.08400
H 0.40400 -5.64200 -1.68000
H -0.89100 -5.99900 -0.46300
H -1.28300 -3.58100 4.02800
H 0.69800 -4.47800 7.75500
H 0.83300 -2.61900 7.68000
H 2.00000 -3.75400 6.97600
Mg 15.75838 1.42342 1.20349
C 17.60344 3.05688 3.81244
C 14.29433 -0.47335 3.63112
C 14.45735 -0.33558 -1.09449
C 18.14671 2.61170 -1.03919
N 15.99960 1.39008 3.40188
C 16.68377 2.09871 4.28738
C 16.30580 1.81759 5.76646
C 15.71275 0.33621 5.58571
C 15.27281 0.42548 4.12586
C 16.76688 -0.75228 5.70118
C 15.21652 2.81075 6.30416
C 15.02446 2.79420 7.82225
H 14.71149 4.05035 8.49797
N 14.21241 0.18018 1.25717
C 13.74086 -0.48599 2.33195
C 12.60542 -1.28416 1.84424
C 12.54815 -1.16167 0.36221
C 13.77644 -0.43516 0.11009
C 11.65781 -1.99790 2.76405
C 11.55888 -1.63299 -0.66024
O 11.82897 -1.62307 -1.91315
C 10.30084 -2.19340 -0.14567
N 16.34239 0.99364 -0.74499
C 15.56798 0.24470 -1.54955
C 16.05268 0.29949 -2.97870
C 17.17464 1.43874 -3.00847
C 17.20887 1.79950 -1.50711
C 16.63309 -1.00069 -3.53461
C 16.98672 2.58479 -4.03994
C 15.78526 3.42305 -3.66687
N 17.44894 2.76548 1.29792
C 18.32952 3.10339 0.24697
C 19.38756 3.95823 0.82335
C 19.05933 4.04013 2.18499
C 17.89136 3.27283 2.44305
C 20.49732 4.49972 0.11529
C 19.44133 4.59254 3.46468
O 20.29660 5.39059 3.84593
C 18.58762 3.87757 4.59887
C 18.04175 4.94246 5.51021
O 17.21294 5.76935 5.09076
O 18.41971 4.67707 6.77397
C 17.89317 5.69965 7.71680
H 13.94591 -1.27272 4.28571
H 13.98690 -0.83486 -1.94471
H 18.87246 3.10237 -1.69127
H 17.14288 1.80165 6.45408
H 14.85516 0.17237 6.23305
H 17.76365 -0.34232 5.76840
H 16.66544 -1.35588 4.80875
H 16.53501 -1.41407 6.54059
H 14.22568 2.46217 5.98561
H 15.41871 3.81191 5.97640
H 15.84301 2.27521 8.33565
H 14.14038 2.19515 8.05367
H 12.04896 -2.04377 3.78791
H 11.62356 -3.04347 2.43928
H 10.64753 -1.58445 2.73148
H 10.52027 -3.03989 0.50069
H 9.68732 -2.39171 -1.02665
H 9.81148 -1.43842 0.47975
H 15.24940 0.57974 -3.64901
H 18.16495 1.02896 -3.25586
H 16.12175 -1.35010 -4.45140
H 16.58357 -1.75502 -2.76060
H 17.69755 -0.97160 -3.76107
H 16.78184 2.17249 -5.03100
H 17.85450 3.22930 -4.13237
H 14.94905 2.85712 -4.08824
H 15.85589 4.41335 -4.11224
H 15.64848 3.45291 -2.57964
H 20.60161 5.52695 0.43843
H 20.35287 4.43344 -0.96105
H 21.29357 3.83675 0.46419
H 19.25153 3.19000 5.12427
H 18.75232 6.10733 8.25841
H 17.11905 5.18367 8.31534
H 17.46458 6.59973 7.29181

