%nproc=24
%mem=175gb
#p cam-b3lyp/Def2SVP td=(nstates=5)

TDDFT excited states in gaussian

0 1
Mg 0.00000 0.00000 0.00000
C -0.21700 -2.21800 2.80100
C -1.25500 2.44200 2.02600
C -0.24500 1.85000 -2.56400
C 0.14600 -2.82400 -2.03700
N -0.61700 -0.00900 2.12600
C -0.59400 -0.90800 3.10500
C -0.93600 -0.30900 4.50200
C -1.77300 0.96400 4.03200
C -1.15500 1.16800 2.66000
C -3.26300 0.68500 3.86300
C 0.34500 0.11000 5.29900
C 0.12400 0.39700 6.78700
H 1.16800 0.03300 7.73300
N -0.18500 1.96100 -0.15200
C -0.70300 2.80000 0.77700
C -0.62000 4.15600 0.19300
C -0.18700 4.01500 -1.22500
C -0.21400 2.58300 -1.38000
C -0.88700 5.40600 0.97400
C 0.18100 5.01300 -2.27700
O 0.30300 4.69000 -3.50800
C 0.31000 6.41400 -1.83700
N -0.26500 -0.41300 -2.02900
C -0.27900 0.56900 -2.93700
C -0.19600 0.02400 -4.33200
C 0.12400 -1.53300 -4.18000
C 0.08600 -1.63200 -2.63500
C -1.45100 0.20500 -5.19700
C 1.37300 -2.07000 -4.92300
C 2.62600 -1.49000 -4.30600
N 0.15000 -2.14400 0.30300
C 0.17300 -3.13600 -0.68800
C 0.17300 -4.43800 0.00400
C 0.13300 -4.11100 1.35800
C 0.08300 -2.69500 1.50200
C 0.14900 -5.71500 -0.62300
C 0.09600 -4.62900 2.71600
O 0.20800 -5.74700 3.22100
C -0.25500 -3.42800 3.70100
C 0.71700 -3.48200 4.84800
O 1.93100 -3.25500 4.66900
O 0.03800 -3.55600 6.00300
C 0.94300 -3.58300 7.18300
H -1.85900 3.22000 2.49700
H -0.21800 2.45300 -3.47400
H 0.27600 -3.74700 -2.60500
H -1.55400 -0.94900 5.13200
H -1.58500 1.83100 4.66500
H -3.48400 -0.37700 3.96900
H -3.51100 1.02700 2.85800
H -3.85200 1.30100 4.54300
H 0.66900 1.09600 4.96600
H 1.13000 -0.63900 5.18900
H -0.84400 0.02600 7.12500
H 0.06200 1.47700 6.92100
H -1.34400 5.18600 1.93800
H -1.65100 5.96300 0.43200
H 0.00700 6.02000 1.08400
H -0.63500 6.74400 -1.40500
H 0.66500 6.97000 -2.70400
H 1.04800 6.46600 -1.03600
H 0.60800 0.50100 -4.89100
H -0.69200 -2.15600 -4.54700
H -1.26700 0.74000 -6.12900
H -2.20400 0.71400 -4.59600
H -1.96700 -0.72000 -5.45300
H 1.35600 -1.75900 -5.96700
H 1.45200 -3.15700 -4.90200
H 2.71400 -0.52200 -4.79800
H 3.48700 -2.12100 -4.52900
H 2.49500 -1.30300 -3.24000
H 0.86700 -6.33300 -0.08400
H 0.40400 -5.64200 -1.68000
H -0.89100 -5.99900 -0.46300
H -1.28300 -3.58100 4.02800
H 0.69800 -4.47800 7.75500
H 0.83300 -2.61900 7.68000
H 2.00000 -3.75400 6.97600
Mg 31.53651 2.83281 2.40313
C 28.84621 2.94797 4.77548
C 33.51271 4.23976 4.80099
C 33.80028 3.16084 0.20423
C 29.13156 2.51930 -0.09960
N 31.11872 3.46563 4.48092
C 30.07576 3.40371 5.29502
C 30.38681 3.77985 6.76857
C 31.68390 4.69213 6.51521
C 32.16247 4.07715 5.20165
C 31.35207 6.15390 6.26529
C 30.72957 2.52511 7.64616
C 30.74068 2.77936 9.15513
H 30.27508 1.71780 10.04327
N 33.48909 3.12552 2.60386
C 34.12373 3.68982 3.65271
C 35.55303 3.69177 3.30448
C 35.69322 3.23314 1.89568
C 34.30096 3.17396 1.49795
C 36.63115 4.02645 4.29396
C 36.88389 2.91447 1.04307
O 36.78242 2.76295 -0.22562
C 38.18653 2.87728 1.72370
N 31.47369 3.05252 0.33670
C 32.60550 3.12159 -0.38591
C 32.31774 2.99952 -1.86330
C 30.77541 2.58987 -1.96818
C 30.39919 2.63510 -0.47091
C 32.56786 4.25677 -2.69585
C 30.44167 1.30567 -2.77571
C 30.97778 0.08932 -2.05565
N 29.39434 2.56120 2.32976
C 28.58379 2.48037 1.17626
C 27.18082 2.41210 1.63391
C 27.27181 2.48170 3.03226
C 28.63387 2.60632 3.41793
C 26.03376 2.34916 0.79343
C 26.52458 2.48878 4.26931
O 25.34325 2.32491 4.57155
C 27.50144 2.91828 5.44730
C 27.30812 1.95442 6.58577
O 27.61880 0.75684 6.45969
O 26.99493 2.64351 7.69817
C 26.80416 1.73174 8.85752
H 34.15743 4.88411 5.39933
H 34.54915 3.16021 -0.59118
H 28.32969 2.32157 -0.81416
H 29.61556 4.35897 7.26207
H 32.42623 4.54884 7.29609
H 30.28782 6.31689 6.18193
H 31.84833 6.41409 5.33951
H 31.80670 6.78102 7.03754
H 31.78307 2.25793 7.49289
H 30.06814 1.71101 7.42174
H 30.26727 3.73375 9.41582
H 31.77745 2.89699 9.47959
H 36.21694 4.48453 5.20060
H 37.24270 4.81681 3.84539
H 37.27127 3.17218 4.52447
H 38.37708 3.84017 2.19168
H 38.90165 2.54610 0.96819
H 38.13812 2.13875 2.53168
H 32.91998 2.21872 -2.31137
H 30.17971 3.36935 -2.46556
H 33.27968 4.09523 -3.52729
H 32.92385 5.03740 -2.03674
H 31.67712 4.70857 -3.12905
H 30.93537 1.33210 -3.75024
H 29.38018 1.17244 -2.95595
H 32.02547 0.05861 -2.36947
H 30.44557 -0.80667 -2.36868
H 30.96320 0.23673 -0.96951
H 25.37282 1.60849 1.22364
H 26.30389 2.09574 -0.22959
H 25.67203 3.37724 0.87980
H 27.24584 3.94061 5.72854
H 25.80743 1.93338 9.26194
H 27.66580 1.91499 9.52665
H 26.73891 0.66927 8.65414

