%nproc=24
%mem=175gb
#p cam-b3lyp/Def2SVP td=(nstates=5)

TDDFT excited states in gaussian

0 1
Mg 0.00000 0.00000 0.00000
C -0.21700 -2.21800 2.80100
C -1.25500 2.44200 2.02600
C -0.24500 1.85000 -2.56400
C 0.14600 -2.82400 -2.03700
N -0.61700 -0.00900 2.12600
C -0.59400 -0.90800 3.10500
C -0.93600 -0.30900 4.50200
C -1.77300 0.96400 4.03200
C -1.15500 1.16800 2.66000
C -3.26300 0.68500 3.86300
C 0.34500 0.11000 5.29900
C 0.12400 0.39700 6.78700
H 1.16800 0.03300 7.73300
N -0.18500 1.96100 -0.15200
C -0.70300 2.80000 0.77700
C -0.62000 4.15600 0.19300
C -0.18700 4.01500 -1.22500
C -0.21400 2.58300 -1.38000
C -0.88700 5.40600 0.97400
C 0.18100 5.01300 -2.27700
O 0.30300 4.69000 -3.50800
C 0.31000 6.41400 -1.83700
N -0.26500 -0.41300 -2.02900
C -0.27900 0.56900 -2.93700
C -0.19600 0.02400 -4.33200
C 0.12400 -1.53300 -4.18000
C 0.08600 -1.63200 -2.63500
C -1.45100 0.20500 -5.19700
C 1.37300 -2.07000 -4.92300
C 2.62600 -1.49000 -4.30600
N 0.15000 -2.14400 0.30300
C 0.17300 -3.13600 -0.68800
C 0.17300 -4.43800 0.00400
C 0.13300 -4.11100 1.35800
C 0.08300 -2.69500 1.50200
C 0.14900 -5.71500 -0.62300
C 0.09600 -4.62900 2.71600
O 0.20800 -5.74700 3.22100
C -0.25500 -3.42800 3.70100
C 0.71700 -3.48200 4.84800
O 1.93100 -3.25500 4.66900
O 0.03800 -3.55600 6.00300
C 0.94300 -3.58300 7.18300
H -1.85900 3.22000 2.49700
H -0.21800 2.45300 -3.47400
H 0.27600 -3.74700 -2.60500
H -1.55400 -0.94900 5.13200
H -1.58500 1.83100 4.66500
H -3.48400 -0.37700 3.96900
H -3.51100 1.02700 2.85800
H -3.85200 1.30100 4.54300
H 0.66900 1.09600 4.96600
H 1.13000 -0.63900 5.18900
H -0.84400 0.02600 7.12500
H 0.06200 1.47700 6.92100
H -1.34400 5.18600 1.93800
H -1.65100 5.96300 0.43200
H 0.00700 6.02000 1.08400
H -0.63500 6.74400 -1.40500
H 0.66500 6.97000 -2.70400
H 1.04800 6.46600 -1.03600
H 0.60800 0.50100 -4.89100
H -0.69200 -2.15600 -4.54700
H -1.26700 0.74000 -6.12900
H -2.20400 0.71400 -4.59600
H -1.96700 -0.72000 -5.45300
H 1.35600 -1.75900 -5.96700
H 1.45200 -3.15700 -4.90200
H 2.71400 -0.52200 -4.79800
H 3.48700 -2.12100 -4.52900
H 2.49500 -1.30300 -3.24000
H 0.86700 -6.33300 -0.08400
H 0.40400 -5.64200 -1.68000
H -0.89100 -5.99900 -0.46300
H -1.28300 -3.58100 4.02800
H 0.69800 -4.47800 7.75500
H 0.83300 -2.61900 7.68000
H 2.00000 -3.75400 6.97600
Mg 10.51895 0.94134 0.79370
C 10.42221 2.45479 -2.45886
C 10.02326 -2.05875 -0.75171
C 10.14948 -0.36290 3.66248
C 9.86471 4.09394 2.12742
N 10.27075 0.39698 -1.33569
C 10.31357 1.04881 -2.48792
C 10.31637 0.13610 -3.74351
C 9.61918 -1.15974 -3.10038
C 10.02116 -0.95475 -1.64125
C 8.10221 -1.13203 -3.18630
C 11.76771 -0.18296 -4.24731
C 11.84127 -0.80955 -5.64148
H 12.96407 -0.45537 -6.50540
N 10.63002 -0.95569 1.36596
C 10.42110 -2.04927 0.60326
C 10.60281 -3.20369 1.49684
C 10.77383 -2.69897 2.88635
C 10.49760 -1.28987 2.69084
C 10.68175 -4.61638 0.99535
C 11.11530 -3.37500 4.17964
O 10.97709 -2.78095 5.30695
C 11.52732 -4.78370 4.09423
N 9.86382 1.70165 2.61444
C 9.84923 0.93479 3.71881
C 9.60559 1.76519 4.95634
C 9.70061 3.28807 4.47742
C 9.90313 3.06482 2.96265
C 8.26765 1.53543 5.65885
C 10.70605 4.20134 5.23088
C 12.12221 3.75722 4.94341
N 10.38025 2.95643 0.02674
C 10.07096 4.12658 0.75419
C 9.98064 5.23363 -0.21983
C 10.22286 4.62167 -1.45892
C 10.42825 3.22789 -1.27268
C 9.65932 6.58625 0.08560
C 10.34098 4.83603 -2.88327
O 10.34979 5.82500 -3.61512
C 10.35008 3.42151 -3.60815
C 11.48025 3.41550 -4.60072
O 12.66075 3.47939 -4.21477
O 10.99459 3.11769 -5.81966
C 12.07953 3.08885 -6.83647
H 9.64488 -3.01586 -1.11178
H 10.11792 -0.74240 4.68642
H 9.76125 5.12413 2.47480
H 9.72462 0.50337 -4.57340
H 10.05363 -2.07653 -3.49038
H 7.73710 -0.18740 -3.56113
H 7.74732 -1.30168 -2.17818
H 7.74269 -1.97823 -3.77877
H 12.18150 -1.00534 -3.64964
H 12.38456 0.69391 -4.21222
H 10.89351 -0.71676 -6.18562
H 11.98219 -1.88743 -5.53050
H 10.35694 -4.69095 -0.04980
H 9.93787 -5.19567 1.55295
H 11.66604 -5.06368 1.14951
H 10.73395 -5.36448 3.62976
H 11.81580 -5.06581 5.10865
H 12.39771 -4.85412 3.43235
H 10.37036 1.58269 5.70126
H 8.74031 3.81198 4.59222
H 8.37658 1.24218 6.72008
H 7.71918 0.78123 5.11030
H 7.58282 2.38142 5.63607
H 10.56519 4.10971 6.31065
H 10.60589 5.25232 4.98109
H 12.27403 2.94046 5.65541
H 12.82241 4.57097 5.12106
H 12.20532 3.33525 3.93510
H 10.34274 7.20427 -0.48140
H 9.73719 6.78211 1.15301
H 8.62427 6.62463 -0.26434
H 9.38041 3.29464 -4.09109
H 11.79151 3.78437 -7.63081
H 12.19811 2.02530 -7.11673
H 13.04650 3.48480 -6.54900

