%nproc=24
%mem=175gb
#p cam-b3lyp/Def2SVP td=(nstates=5)

TDDFT excited states in gaussian

0 1
Mg 15.77307 1.41823 1.20571
C 15.86508 -2.15728 1.49949
C 14.63793 1.50385 4.42110
C 15.25253 4.52604 0.83424
C 15.80475 0.99594 -2.25353
N 15.34746 -0.18595 2.66781
C 15.47853 -1.50381 2.68818
C 15.25618 -2.15082 4.08156
C 14.33852 -1.00610 4.73456
C 14.82395 0.19087 3.91952
C 12.85519 -1.19733 4.46529
C 16.59678 -2.33503 4.87583
C 16.49570 -3.23747 6.10756
H 17.63557 -4.08589 6.44423
N 15.52524 2.84952 2.55796
C 15.07685 2.70532 3.82264
C 15.05688 4.05860 4.39918
C 15.37316 5.03305 3.31977
C 15.37551 4.15652 2.16574
C 14.83621 4.31697 5.86136
C 15.61861 6.51154 3.32357
O 15.64058 7.19324 2.23839
C 15.73952 7.15263 4.64110
N 15.34597 2.58714 -0.45969
C 15.21804 3.92140 -0.35342
C 15.18751 4.57652 -1.71367
C 15.56619 3.42303 -2.75466
C 15.66727 2.22757 -1.78200
C 13.85598 5.20917 -2.11761
C 16.75863 3.70123 -3.71035
C 18.04750 3.76391 -2.92277
N 16.01045 -0.24198 -0.15643
C 15.96525 -0.20098 -1.56723
C 16.06252 -1.59495 -2.04663
C 16.13496 -2.35812 -0.87154
C 16.06594 -1.50194 0.26057
C 16.02700 -2.01105 -3.40740
C 16.24342 -3.69418 -0.33130
O 16.42281 -4.81306 -0.81054
C 15.94618 -3.63406 1.22896
C 17.01726 -4.41816 1.93640
O 18.19970 -4.03338 1.91650
O 16.43984 -5.36650 2.69641
C 17.46124 -6.16362 3.42659
H 14.06471 1.63193 5.33975
H 15.18207 5.60013 0.64758
H 15.92008 0.78846 -3.31951
H 14.72049 -3.09238 4.06493
H 14.56841 -0.86859 5.78793
H 12.67201 -2.00927 3.77730
H 12.50915 -0.26135 4.04666
H 12.31435 -1.32434 5.40746
H 16.85969 -1.38553 5.35964
H 17.37628 -2.69056 4.23038
H 15.56679 -3.82057 6.11621
H 16.42361 -2.60531 6.99592
H 14.46673 3.42183 6.37674
H 14.01208 5.03441 5.93849
H 15.71688 4.73620 6.35263
H 14.83091 6.97805 5.21241
H 16.00154 8.19263 4.43709
H 16.55493 6.67010 5.19145
H 15.92640 5.36570 -1.77949
H 14.73362 3.20210 -3.43867
H 13.94156 6.28315 -2.36923
H 13.14987 5.06267 -1.31108
H 13.35237 4.73003 -2.95546
H 16.64021 4.67601 -4.18987
H 16.86044 2.96418 -4.49989
H 18.05894 4.79238 -2.54966
H 18.90109 3.56890 -3.56883
H 18.00989 3.09805 -2.05279
H 16.79927 -2.75968 -3.52431
H 16.17947 -1.17250 -4.08368
H 15.00859 -2.40454 -3.46451
H 14.95435 -4.05819 1.39008
H 17.28945 -7.21382 3.17114
H 17.35644 -5.88044 4.49081
H 18.49702 -6.04109 3.13231

