%nproc=24
%mem=175gb
#p cam-b3lyp/Def2SVP td=(nstates=5)

TDDFT excited states in gaussian

0 1
Mg 31.52978 2.84109 2.38536
C 33.26993 0.26788 0.58828
C 33.33718 5.10948 0.59027
C 30.34905 5.11457 4.25742
C 30.72990 0.43641 4.77772
N 33.07318 2.59741 0.81986
C 33.60929 1.57276 0.17408
C 34.50104 1.96879 -1.03319
C 34.89034 3.45544 -0.56714
C 33.67782 3.76219 0.30943
C 36.13458 3.50667 0.30382
C 33.70540 1.98061 -2.38554
C 34.57488 2.05554 -3.64258
H 34.13794 1.33478 -4.83508
N 31.42354 4.80381 2.11145
C 32.22224 5.56081 1.33023
C 31.74583 6.94366 1.48812
C 30.70641 6.96299 2.55300
C 30.80297 5.60165 3.04035
C 32.21677 8.07112 0.61607
C 29.78764 8.03364 3.05874
O 29.13208 7.89737 4.15167
C 29.74943 9.28367 2.28579
N 30.84564 2.83697 4.34859
C 30.33479 3.94934 4.90501
C 29.65778 3.64050 6.21903
C 29.60910 2.04474 6.31262
C 30.38002 1.69190 5.02166
C 30.33893 4.20266 7.46659
C 28.21700 1.39542 6.54308
C 27.34262 1.60404 5.32763
N 31.75284 0.70036 2.57397
C 31.37137 -0.10367 3.67037
C 31.83100 -1.47797 3.38321
C 32.47333 -1.37274 2.14029
C 32.43561 -0.02395 1.69439
C 31.67724 -2.60298 4.24159
C 33.18400 -2.09399 1.10906
O 33.44236 -3.27822 0.89794
C 33.84215 -1.04039 0.11752
C 33.53583 -1.47305 -1.29013
O 32.36501 -1.47736 -1.70940
O 34.68839 -1.60093 -1.97249
C 34.43594 -2.01788 -3.37757
H 34.00935 5.89677 0.24784
H 29.83392 5.83889 4.89262
H 30.43354 -0.38912 5.42836
H 35.39612 1.37016 -1.15249
H 34.93133 4.13658 -1.41315
H 36.48520 2.51898 0.56397
H 35.84888 4.05313 1.19309
H 36.91026 4.10568 -0.18182
H 33.16437 2.93147 -2.47436
H 33.05003 1.13383 -2.44942
H 35.62881 1.84054 -3.42820
H 34.57936 3.08800 -4.00038
H 33.10225 7.78682 0.03427
H 32.57291 8.86384 1.28287
H 31.42359 8.47265 -0.01821
H 30.74767 9.71285 2.24364
H 28.97073 9.89121 2.75098
H 29.46411 9.04861 1.25431
H 28.64506 4.02433 6.23190
H 30.21183 1.66722 7.15169
H 29.67633 4.85021 8.07133
H 31.22247 4.74539 7.15784
H 30.75104 3.45639 8.14368
H 27.70688 1.87992 7.37925
H 28.26672 0.33504 6.76696
H 26.94012 2.60953 5.48283
H 26.54794 0.86142 5.29539
H 27.94257 1.62708 4.41048
H 31.36789 -3.43081 3.61748
H 30.95329 -2.40589 5.02952
H 32.69474 -2.69116 4.63170
H 34.91422 -1.02747 0.31770
H 35.01495 -2.93060 -3.54893
H 34.68639 -1.13820 -3.99982
H 33.43603 -2.35133 -3.62946

