%nproc=24
%mem=175gb
#p cam-b3lyp/Def2SVP td=(nstates=5)

TDDFT excited states in gaussian

0 1
Mg 0.00000 0.00000 0.00000
C -0.21700 -2.21800 2.80100
C -1.25500 2.44200 2.02600
C -0.24500 1.85000 -2.56400
C 0.14600 -2.82400 -2.03700
N -0.61700 -0.00900 2.12600
C -0.59400 -0.90800 3.10500
C -0.93600 -0.30900 4.50200
C -1.77300 0.96400 4.03200
C -1.15500 1.16800 2.66000
C -3.26300 0.68500 3.86300
C 0.34500 0.11000 5.29900
C 0.12400 0.39700 6.78700
H 1.16800 0.03300 7.73300
N -0.18500 1.96100 -0.15200
C -0.70300 2.80000 0.77700
C -0.62000 4.15600 0.19300
C -0.18700 4.01500 -1.22500
C -0.21400 2.58300 -1.38000
C -0.88700 5.40600 0.97400
C 0.18100 5.01300 -2.27700
O 0.30300 4.69000 -3.50800
C 0.31000 6.41400 -1.83700
N -0.26500 -0.41300 -2.02900
C -0.27900 0.56900 -2.93700
C -0.19600 0.02400 -4.33200
C 0.12400 -1.53300 -4.18000
C 0.08600 -1.63200 -2.63500
C -1.45100 0.20500 -5.19700
C 1.37300 -2.07000 -4.92300
C 2.62600 -1.49000 -4.30600
N 0.15000 -2.14400 0.30300
C 0.17300 -3.13600 -0.68800
C 0.17300 -4.43800 0.00400
C 0.13300 -4.11100 1.35800
C 0.08300 -2.69500 1.50200
C 0.14900 -5.71500 -0.62300
C 0.09600 -4.62900 2.71600
O 0.20800 -5.74700 3.22100
C -0.25500 -3.42800 3.70100
C 0.71700 -3.48200 4.84800
O 1.93100 -3.25500 4.66900
O 0.03800 -3.55600 6.00300
C 0.94300 -3.58300 7.18300
H -1.85900 3.22000 2.49700
H -0.21800 2.45300 -3.47400
H 0.27600 -3.74700 -2.60500
H -1.55400 -0.94900 5.13200
H -1.58500 1.83100 4.66500
H -3.48400 -0.37700 3.96900
H -3.51100 1.02700 2.85800
H -3.85200 1.30100 4.54300
H 0.66900 1.09600 4.96600
H 1.13000 -0.63900 5.18900
H -0.84400 0.02600 7.12500
H 0.06200 1.47700 6.92100
H -1.34400 5.18600 1.93800
H -1.65100 5.96300 0.43200
H 0.00700 6.02000 1.08400
H -0.63500 6.74400 -1.40500
H 0.66500 6.97000 -2.70400
H 1.04800 6.46600 -1.03600
H 0.60800 0.50100 -4.89100
H -0.69200 -2.15600 -4.54700
H -1.26700 0.74000 -6.12900
H -2.20400 0.71400 -4.59600
H -1.96700 -0.72000 -5.45300
H 1.35600 -1.75900 -5.96700
H 1.45200 -3.15700 -4.90200
H 2.71400 -0.52200 -4.79800
H 3.48700 -2.12100 -4.52900
H 2.49500 -1.30300 -3.24000
H 0.86700 -6.33300 -0.08400
H 0.40400 -5.64200 -1.68000
H -0.89100 -5.99900 -0.46300
H -1.28300 -3.58100 4.02800
H 0.69800 -4.47800 7.75500
H 0.83300 -2.61900 7.68000
H 2.00000 -3.75400 6.97600
Mg 7.88875 0.71285 0.59041
C 10.66153 -1.56089 0.73491
C 10.14668 3.25099 0.89733
C 5.44708 2.71231 0.91874
C 5.82691 -1.96608 1.43768
N 10.09222 0.71785 0.78259
C 11.04363 -0.20346 0.76337
C 12.48691 0.36374 0.69426
C 12.20582 1.81386 1.32435
C 10.73200 1.96081 0.95163
C 12.32068 1.84431 2.83935
C 13.01733 0.47042 -0.77859
C 14.52149 0.72260 -0.90374
H 15.24067 0.10524 -2.01464
N 7.80586 2.68437 0.37871
C 8.82262 3.56102 0.51645
C 8.24141 4.89161 0.28004
C 6.76599 4.74336 0.15406
C 6.61028 3.34658 0.50739
C 9.07771 6.12729 0.11536
C 5.67431 5.70348 -0.21009
O 4.43823 5.41918 -0.02535
C 6.09838 7.02237 -0.70222
N 5.95310 0.46861 1.30870
C 5.07603 1.48764 1.29267
C 3.67693 1.00799 1.59734
C 3.75767 -0.58915 1.58318
C 5.27453 -0.76379 1.35073
C 3.08837 1.47577 2.92820
C 2.77463 -1.33519 0.63993
C 3.12779 -1.05153 -0.80237
N 8.13132 -1.42018 0.83413
C 7.14275 -2.35277 1.21765
C 7.81133 -3.66250 1.35921
C 9.15742 -3.39432 1.06831
C 9.32007 -2.01099 0.78647
C 7.18598 -4.87670 1.76017
C 10.47959 -3.96492 0.94597
O 10.94073 -5.10491 0.98469
C 11.53435 -2.77988 0.84831
C 12.46786 -3.08171 -0.29186
O 12.04827 -3.10797 -1.46227
O 13.73450 -3.07435 0.16194
C 14.69833 -3.35785 -0.93464
H 10.74392 4.10551 1.21667
H 4.55153 3.33761 0.94066
H 5.23596 -2.86940 1.60337
H 13.21354 -0.16870 1.29617
H 12.80128 2.57969 0.83415
H 12.45684 0.85614 3.25301
H 11.39626 2.27959 3.19576
H 13.11470 2.53235 3.14344
H 12.63370 1.39378 -1.23132
H 12.74863 -0.40043 -1.34432
H 15.04914 0.54565 0.04136
H 14.67972 1.78505 -1.10420
H 10.11627 5.95410 0.42325
H 8.70160 6.86574 0.83167
H 9.01517 6.54722 -0.89082
H 6.71323 7.50848 0.05151
H 5.17958 7.53453 -0.99441
H 6.73449 6.87923 -1.58284
H 2.98199 1.33152 0.83217
H 3.54012 -1.01692 2.57289
H 2.13162 2.01976 2.81518
H 3.82170 2.09571 3.42663
H 2.91652 0.68786 3.65954
H 1.75592 -0.96847 0.78792
H 2.75644 -2.40856 0.79656
H 2.63875 -0.09132 -0.99192
H 2.73473 -1.82994 -1.45322
H 4.20709 -0.90086 -0.92097
H 7.56304 -5.65181 1.10632
H 6.10187 -4.80235 1.70595
H 7.54147 -4.94782 2.79160
H 12.05819 -2.72801 1.80355
H 15.30081 -4.21445 -0.61694
H 15.23226 -2.40623 -1.11654
H 14.29655 -3.71871 -1.87422

