%nproc=24
%mem=175gb
#p cam-b3lyp/Def2SVP td=(nstates=5)

TDDFT excited states in gaussian

0 1
Mg 10.50371 0.94848 0.79093
C 11.04681 -1.77516 -1.48193
C 11.31616 3.05086 -1.76925
C 10.47315 3.33948 2.87650
C 10.85497 -1.33857 3.39702
N 11.08735 0.56732 -1.30820
C 11.20016 -0.50549 -2.07678
C 11.41444 -0.19789 -3.58310
C 12.04430 1.27248 -3.44105
C 11.42021 1.67792 -2.10733
C 13.55530 1.26687 -3.27926
C 10.06616 -0.17018 -4.38521
C 10.22304 -0.18279 -5.90737
H 9.23395 -0.90463 -6.70307
N 10.36350 2.90633 0.49813
C 10.71771 3.59085 -0.60968
C 10.43709 5.00474 -0.31586
C 10.04287 5.11727 1.11475
C 10.30369 3.76546 1.56716
C 10.47680 6.07735 -1.36532
C 9.52975 6.25667 1.94219
O 9.47809 6.19032 3.22115
C 9.17727 7.48643 1.21765
N 10.85293 1.03803 2.83846
C 10.72288 2.19446 3.51202
C 10.75173 1.96294 5.00398
C 10.68526 0.37641 5.19392
C 10.72104 -0.05758 3.71211
C 11.97413 2.51246 5.73894
C 9.55078 -0.17711 6.09905
C 8.20822 0.05545 5.44419
N 10.69721 -1.19657 0.96237
C 10.85806 -1.94644 2.14808
C 11.06197 -3.35405 1.74871
C 11.02830 -3.32165 0.34646
C 10.83842 -1.98504 -0.09727
C 11.29319 -4.44470 2.63365
C 11.12084 -4.11271 -0.85951
O 11.19364 -5.31597 -1.10568
C 11.26342 -3.12874 -2.09962
C 10.29718 -3.57695 -3.16169
O 9.07050 -3.51764 -2.96586
O 10.97034 -3.79516 -4.30607
C 10.05314 -4.23105 -5.39261
H 11.77284 3.78486 -2.43375
H 10.36058 4.11106 3.64166
H 10.87413 -2.12671 4.15277
H 12.11385 -0.85500 -4.08591
H 11.70120 1.92778 -4.23744
H 13.94482 0.26590 -3.16763
H 13.75837 1.85295 -2.39251
H 14.02524 1.80280 -4.10888
H 9.59120 0.81052 -4.25340
H 9.42543 -0.97500 -4.08129
H 11.23907 -0.45871 -6.21475
H 10.09891 0.83781 -6.27748
H 10.95813 5.72261 -2.28504
H 11.14454 6.86266 -0.99480
H 9.49420 6.51207 -1.56069
H 10.04863 7.85015 0.67830
H 8.74705 8.15389 1.96683
H 8.41956 7.24365 0.46429
H 9.88875 2.41050 5.48154
H 11.60119 -0.01703 5.65881
H 11.71455 3.21603 6.55237
H 12.62138 2.98992 5.01531
H 12.62918 1.75910 6.17317
H 9.52924 0.36004 7.05045
H 9.65645 -1.23243 6.32736
H 7.97462 1.08810 5.72014
H 7.46543 -0.63580 5.83722
H 8.29120 0.01688 4.35182
H 10.68548 -5.26692 2.27989
H 11.04890 -4.18195 3.66081
H 12.36769 -4.58730 2.49088
H 12.29834 -3.17879 -2.44023
H 10.43735 -5.18278 -5.77245
H 10.00987 -3.38526 -6.10431
H 9.04251 -4.50668 -5.11493

