%nproc=24
%mem=175gb
#p cam-b3lyp/Def2SVP td=(nstates=5)

TDDFT excited states in gaussian

0 1
Mg 15.75755 1.42170 1.19211
C 15.64910 -1.35491 -1.07895
C 15.95900 3.45528 -1.53892
C 16.30725 3.84727 3.16235
C 16.68957 -0.83075 3.68280
N 15.79021 0.98787 -0.97653
C 15.68115 -0.10062 -1.72328
C 15.52110 0.17500 -3.24248
C 16.20305 1.62790 -3.29643
C 15.94119 2.07433 -1.85949
C 17.70610 1.57947 -3.51514
C 14.01664 0.22985 -3.68477
C 13.78906 0.18691 -5.19742
H 12.61522 -0.51806 -5.70495
N 15.59783 3.37768 0.89685
C 15.68195 4.03249 -0.28019
C 15.51881 5.45894 0.04042
C 15.49631 5.60734 1.52103
C 15.82770 4.25608 1.92645
C 15.32268 6.51206 -1.01119
C 15.23412 6.77545 2.42267
O 15.50103 6.73220 3.67556
C 14.74315 8.00291 1.77942
N 16.60790 1.53511 3.08588
C 16.67869 2.70609 3.74293
C 17.07246 2.49894 5.18599
C 17.01574 0.91855 5.42418
C 16.67043 0.45882 3.99072
C 18.45274 3.02364 5.58081
C 16.12899 0.41478 6.59575
C 14.67188 0.67665 6.28974
N 15.93394 -0.72502 1.36107
C 16.36626 -1.45935 2.48709
C 16.42899 -2.87899 2.08318
C 16.04793 -2.86918 0.73293
C 15.78700 -1.53509 0.31864
C 16.84600 -3.96108 2.90859
C 15.81734 -3.68283 -0.43903
O 15.79642 -4.89171 -0.66686
C 15.67110 -2.72460 -1.69871
C 14.45987 -3.16128 -2.47636
O 13.32251 -3.06173 -1.98329
O 14.82108 -3.41890 -3.74660
C 13.65154 -3.84516 -4.56043
H 16.25398 4.16391 -2.31334
H 16.40815 4.63465 3.91290
H 16.87665 -1.60628 4.42860
H 16.05656 -0.51126 -3.88754
H 15.68891 2.27975 -3.99793
H 18.08599 0.56922 -3.48004
H 18.13825 2.17398 -2.72088
H 17.96783 2.08696 -4.44803
H 13.61417 1.22650 -3.46243
H 13.45189 -0.55007 -3.21210
H 14.68928 -0.12464 -5.74101
H 13.60222 1.20442 -5.54925
H 15.55071 6.12756 -2.01297
H 16.08108 7.28301 -0.83703
H 14.33357 6.97285 -0.96653
H 15.46152 8.33108 1.03194
H 14.52993 8.69554 2.59592
H 13.81584 7.77045 1.24400
H 16.36710 2.98028 5.85224
H 18.00846 0.50555 5.65608
H 18.42165 3.74829 6.41626
H 18.91108 3.46913 4.70788
H 19.17625 2.25828 5.85643
H 16.35855 0.96826 7.50959
H 16.26178 -0.63926 6.81568
H 14.54028 1.72037 6.59044
H 14.03335 0.01481 6.87137
H 14.47916 0.61723 5.21225
H 16.14896 -4.77043 2.73662
H 16.87191 -3.67384 3.95769
H 17.84716 -4.13838 2.50670
H 16.58697 -2.81155 -2.28454
H 13.90511 -4.81429 -5.00108
H 13.45353 -3.01053 -5.25896
H 12.73536 -4.08548 -4.03382

