%nproc=24
%mem=175gb
#p cam-b3lyp/Def2SVP td=(nstates=5)

TDDFT excited states in gaussian

0 1
Mg 0.00000 0.00000 0.00000
C -0.21700 -2.21800 2.80100
C -1.25500 2.44200 2.02600
C -0.24500 1.85000 -2.56400
C 0.14600 -2.82400 -2.03700
N -0.61700 -0.00900 2.12600
C -0.59400 -0.90800 3.10500
C -0.93600 -0.30900 4.50200
C -1.77300 0.96400 4.03200
C -1.15500 1.16800 2.66000
C -3.26300 0.68500 3.86300
C 0.34500 0.11000 5.29900
C 0.12400 0.39700 6.78700
H 1.16800 0.03300 7.73300
N -0.18500 1.96100 -0.15200
C -0.70300 2.80000 0.77700
C -0.62000 4.15600 0.19300
C -0.18700 4.01500 -1.22500
C -0.21400 2.58300 -1.38000
C -0.88700 5.40600 0.97400
C 0.18100 5.01300 -2.27700
O 0.30300 4.69000 -3.50800
C 0.31000 6.41400 -1.83700
N -0.26500 -0.41300 -2.02900
C -0.27900 0.56900 -2.93700
C -0.19600 0.02400 -4.33200
C 0.12400 -1.53300 -4.18000
C 0.08600 -1.63200 -2.63500
C -1.45100 0.20500 -5.19700
C 1.37300 -2.07000 -4.92300
C 2.62600 -1.49000 -4.30600
N 0.15000 -2.14400 0.30300
C 0.17300 -3.13600 -0.68800
C 0.17300 -4.43800 0.00400
C 0.13300 -4.11100 1.35800
C 0.08300 -2.69500 1.50200
C 0.14900 -5.71500 -0.62300
C 0.09600 -4.62900 2.71600
O 0.20800 -5.74700 3.22100
C -0.25500 -3.42800 3.70100
C 0.71700 -3.48200 4.84800
O 1.93100 -3.25500 4.66900
O 0.03800 -3.55600 6.00300
C 0.94300 -3.58300 7.18300
H -1.85900 3.22000 2.49700
H -0.21800 2.45300 -3.47400
H 0.27600 -3.74700 -2.60500
H -1.55400 -0.94900 5.13200
H -1.58500 1.83100 4.66500
H -3.48400 -0.37700 3.96900
H -3.51100 1.02700 2.85800
H -3.85200 1.30100 4.54300
H 0.66900 1.09600 4.96600
H 1.13000 -0.63900 5.18900
H -0.84400 0.02600 7.12500
H 0.06200 1.47700 6.92100
H -1.34400 5.18600 1.93800
H -1.65100 5.96300 0.43200
H 0.00700 6.02000 1.08400
H -0.63500 6.74400 -1.40500
H 0.66500 6.97000 -2.70400
H 1.04800 6.46600 -1.03600
H 0.60800 0.50100 -4.89100
H -0.69200 -2.15600 -4.54700
H -1.26700 0.74000 -6.12900
H -2.20400 0.71400 -4.59600
H -1.96700 -0.72000 -5.45300
H 1.35600 -1.75900 -5.96700
H 1.45200 -3.15700 -4.90200
H 2.71400 -0.52200 -4.79800
H 3.48700 -2.12100 -4.52900
H 2.49500 -1.30300 -3.24000
H 0.86700 -6.33300 -0.08400
H 0.40400 -5.64200 -1.68000
H -0.89100 -5.99900 -0.46300
H -1.28300 -3.58100 4.02800
H 0.69800 -4.47800 7.75500
H 0.83300 -2.61900 7.68000
H 2.00000 -3.75400 6.97600
Mg 10.51973 0.95099 0.80180
C 11.43095 -1.18764 3.53585
C 10.34373 3.50617 3.05451
C 9.28227 2.75785 -1.49414
C 9.66322 -1.92069 -0.97740
N 10.86567 1.02511 2.98517
C 11.26780 0.16329 3.90707
C 11.58609 0.79927 5.28685
C 10.67259 2.11411 5.16206
C 10.64939 2.25218 3.64118
C 9.24686 1.90438 5.64441
C 13.10386 1.16673 5.43980
C 13.54328 1.50400 6.86630
H 14.88206 1.10777 7.29424
N 10.37109 2.92495 0.66058
C 10.33700 3.81314 1.67608
C 10.19964 5.13660 1.04860
C 9.98974 4.94370 -0.41204
C 9.84904 3.50255 -0.47006
C 10.35091 6.41941 1.81342
C 9.91381 5.89939 -1.56403
O 9.48735 5.53301 -2.71587
C 10.26489 7.29840 -1.27947
N 9.40807 0.50599 -0.89777
C 9.04113 1.47323 -1.75668
C 8.49358 0.88747 -3.03631
C 8.79474 -0.68101 -2.95420
C 9.41147 -0.74657 -1.53972
C 7.00110 1.10662 -3.28304
C 9.58505 -1.30865 -4.13495
C 11.00120 -0.77974 -4.14717
N 10.70332 -1.18010 1.10643
C 10.25529 -2.20644 0.24620
C 10.50085 -3.49003 0.93506
C 11.05798 -3.11737 2.16763
C 11.13429 -1.70072 2.24997
C 10.17088 -4.78026 0.43255
C 11.58907 -3.59992 3.42214
O 11.85450 -4.70899 3.88392
C 11.73737 -2.36793 4.41542
C 13.10274 -2.43864 5.04254
O 14.12499 -2.29436 4.34913
O 12.97265 -2.44712 6.38170
C 14.30058 -2.50542 7.04881
H 10.03876 4.32409 3.70787
H 8.94071 3.32997 -2.35988
H 9.51424 -2.86487 -1.50562
H 11.27505 0.21013 6.14121
H 11.15595 2.97542 5.61578
H 9.05014 0.86955 5.88226
H 8.61051 2.23378 4.83349
H 9.03180 2.56960 6.48558
H 13.28923 2.13272 4.95274
H 13.72621 0.38750 5.04468
H 12.79655 1.20075 7.61020
H 13.59460 2.59097 6.96575
H 10.33571 6.24614 2.89654
H 9.45161 7.01443 1.62088
H 11.22720 6.99323 1.50438
H 9.61076 7.68371 -0.50094
H 10.23700 7.80873 -2.24418
H 11.28390 7.32864 -0.87783
H 9.00341 1.29851 -3.89900
H 7.86808 -1.27264 -2.92072
H 6.78745 1.61762 -4.24081
H 6.59707 1.67052 -2.45279
H 6.39290 0.20383 -3.26690
H 9.13673 -1.01743 -5.08802
H 9.61117 -2.39293 -4.10931
H 10.90343 0.17523 -4.67212
H 11.65947 -1.45973 -4.68414
H 11.34913 -0.56292 -3.13052
H 11.01687 -5.42147 0.64148
H 9.94923 -4.74753 -0.63214
H 9.28242 -5.00098 1.03020
H 10.94162 -2.44742 5.15706
H 14.28576 -3.37380 7.71468
H 14.44321 -1.51361 7.51756
H 15.16263 -2.72750 6.43076

