%nproc=24
%mem=175gb
#p cam-b3lyp/Def2SVP td=(nstates=5)

TDDFT excited states in gaussian

0 1
Mg 0.00000 0.00000 0.00000
C -0.21700 -2.21800 2.80100
C -1.25500 2.44200 2.02600
C -0.24500 1.85000 -2.56400
C 0.14600 -2.82400 -2.03700
N -0.61700 -0.00900 2.12600
C -0.59400 -0.90800 3.10500
C -0.93600 -0.30900 4.50200
C -1.77300 0.96400 4.03200
C -1.15500 1.16800 2.66000
C -3.26300 0.68500 3.86300
C 0.34500 0.11000 5.29900
C 0.12400 0.39700 6.78700
H 1.16800 0.03300 7.73300
N -0.18500 1.96100 -0.15200
C -0.70300 2.80000 0.77700
C -0.62000 4.15600 0.19300
C -0.18700 4.01500 -1.22500
C -0.21400 2.58300 -1.38000
C -0.88700 5.40600 0.97400
C 0.18100 5.01300 -2.27700
O 0.30300 4.69000 -3.50800
C 0.31000 6.41400 -1.83700
N -0.26500 -0.41300 -2.02900
C -0.27900 0.56900 -2.93700
C -0.19600 0.02400 -4.33200
C 0.12400 -1.53300 -4.18000
C 0.08600 -1.63200 -2.63500
C -1.45100 0.20500 -5.19700
C 1.37300 -2.07000 -4.92300
C 2.62600 -1.49000 -4.30600
N 0.15000 -2.14400 0.30300
C 0.17300 -3.13600 -0.68800
C 0.17300 -4.43800 0.00400
C 0.13300 -4.11100 1.35800
C 0.08300 -2.69500 1.50200
C 0.14900 -5.71500 -0.62300
C 0.09600 -4.62900 2.71600
O 0.20800 -5.74700 3.22100
C -0.25500 -3.42800 3.70100
C 0.71700 -3.48200 4.84800
O 1.93100 -3.25500 4.66900
O 0.03800 -3.55600 6.00300
C 0.94300 -3.58300 7.18300
H -1.85900 3.22000 2.49700
H -0.21800 2.45300 -3.47400
H 0.27600 -3.74700 -2.60500
H -1.55400 -0.94900 5.13200
H -1.58500 1.83100 4.66500
H -3.48400 -0.37700 3.96900
H -3.51100 1.02700 2.85800
H -3.85200 1.30100 4.54300
H 0.66900 1.09600 4.96600
H 1.13000 -0.63900 5.18900
H -0.84400 0.02600 7.12500
H 0.06200 1.47700 6.92100
H -1.34400 5.18600 1.93800
H -1.65100 5.96300 0.43200
H 0.00700 6.02000 1.08400
H -0.63500 6.74400 -1.40500
H 0.66500 6.97000 -2.70400
H 1.04800 6.46600 -1.03600
H 0.60800 0.50100 -4.89100
H -0.69200 -2.15600 -4.54700
H -1.26700 0.74000 -6.12900
H -2.20400 0.71400 -4.59600
H -1.96700 -0.72000 -5.45300
H 1.35600 -1.75900 -5.96700
H 1.45200 -3.15700 -4.90200
H 2.71400 -0.52200 -4.79800
H 3.48700 -2.12100 -4.52900
H 2.49500 -1.30300 -3.24000
H 0.86700 -6.33300 -0.08400
H 0.40400 -5.64200 -1.68000
H -0.89100 -5.99900 -0.46300
H -1.28300 -3.58100 4.02800
H 0.69800 -4.47800 7.75500
H 0.83300 -2.61900 7.68000
H 2.00000 -3.75400 6.97600
Mg 31.52471 2.83588 2.40183
C 31.54560 5.54855 4.75131
C 32.17044 0.75484 5.02612
C 31.95899 0.49204 0.30773
C 32.01983 5.19506 -0.11508
N 31.80006 3.22075 4.56246
C 31.72466 4.28366 5.34915
C 31.76775 3.96433 6.86762
C 32.52906 2.55224 6.79487
C 32.11720 2.12471 5.38765
C 34.04273 2.68204 6.83081
C 30.33428 3.81280 7.48747
C 30.29235 3.80768 9.01716
H 29.15325 4.43203 9.68432
N 31.50895 0.86766 2.65564
C 31.77254 0.19181 3.79364
C 31.64893 -1.23389 3.45267
C 31.45271 -1.34916 1.98198
C 31.65789 0.02791 1.57993
C 31.64102 -2.32052 4.48834
C 31.14552 -2.50933 1.08430
O 31.25366 -2.42192 -0.18987
C 30.80472 -3.77752 1.74539
N 32.14075 2.81529 0.41628
C 32.19373 1.66578 -0.27924
C 32.39531 1.92847 -1.75258
C 32.22401 3.50804 -1.93473
C 32.03305 3.91397 -0.45684
C 33.74305 1.49333 -2.32760
C 31.17395 3.98682 -2.97436
C 29.78189 3.63453 -2.50167
N 31.56217 4.99251 2.27701
C 31.81229 5.77628 1.12930
C 31.84700 7.18748 1.56490
C 31.63588 7.12462 2.95053
C 31.50068 5.76854 3.35333
C 32.10002 8.31052 0.72771
C 31.50725 7.89642 4.16563
O 31.44887 9.09652 4.43038
C 31.56919 6.90258 5.40451
C 30.44081 7.25078 6.33618
O 29.25857 7.09733 5.98211
O 30.94088 7.49940 7.56031
C 29.85883 7.83876 8.52250
H 32.59641 0.04670 5.73744
H 32.00949 -0.27072 -0.47274
H 32.07144 5.99706 -0.85454
H 32.34037 4.66521 7.46314
H 32.14119 1.85587 7.53379
H 34.36000 3.71301 6.78009
H 34.40561 2.13185 5.97253
H 34.44430 2.16908 7.70942
H 29.96225 2.80003 7.28592
H 29.67420 4.56961 7.11042
H 31.23430 4.15791 9.45650
H 30.20570 2.77327 9.35847
H 31.96924 -1.94672 5.46607
H 32.41301 -3.04231 4.20039
H 30.68042 -2.83632 4.55033
H 31.62626 -4.08094 2.38996
H 30.53069 -4.46226 0.94046
H 29.93900 -3.61122 2.39616
H 31.64061 1.42282 -2.34236
H 33.15680 3.98273 -2.27299
H 33.64890 0.78753 -3.17440
H 34.32871 1.05494 -1.53050
H 34.38456 2.30521 -2.66600
H 31.31917 3.46869 -3.92547
H 31.22127 5.05154 -3.17715
H 29.67120 2.59218 -2.81526
H 29.04172 4.27175 -2.98140
H 29.72012 3.65790 -1.40747
H 31.38648 9.07423 1.00719
H 32.01235 8.04951 -0.32489
H 33.13186 8.53583 1.01019
H 32.54404 7.02857 5.87714
H 30.11163 8.81046 8.95790
H 29.79379 6.97824 9.21462
H 28.87318 8.03804 8.11847

