%nproc=24
%mem=175gb
#p cam-b3lyp/Def2SVP td=(nstates=5)

TDDFT excited states in gaussian

0 1
Mg 13.13401 1.18505 0.98874
C 14.45596 -1.44994 -1.05779
C 14.61599 3.38856 -1.15203
C 12.36972 3.50897 3.00931
C 12.75092 -1.16914 3.52975
N 14.35124 0.88627 -0.83371
C 14.73674 -0.15856 -1.55070
C 15.39359 0.20142 -2.91030
C 15.89209 1.68513 -2.55116
C 14.87176 2.03041 -1.46840
C 17.27842 1.72029 -1.92971
C 14.35871 0.21288 -4.08966
C 14.97815 0.25170 -5.48843
H 14.31135 -0.47500 -6.56535
N 13.01622 3.14582 0.70574
C 13.66863 3.87439 -0.22422
C 13.25714 5.26947 -0.00378
C 12.43657 5.32610 1.23646
C 12.59653 3.96957 1.72053
C 13.57778 6.37446 -0.96795
C 11.64989 6.42356 1.88679
O 11.20855 6.31648 3.08536
C 11.49150 7.66371 1.11322
N 12.83046 1.22232 3.04515
C 12.45470 2.35309 3.66812
C 12.03044 2.07692 5.09084
C 11.96935 0.48403 5.21943
C 12.47736 0.09696 3.81320
C 12.94432 2.64039 6.17883
C 10.63293 -0.13106 5.71775
C 9.55020 0.08072 4.68420
N 13.34707 -0.95740 1.16917
C 13.16264 -1.73806 2.33134
C 13.53356 -3.12594 1.98692
C 13.93316 -3.05161 0.64406
C 13.83853 -1.70837 0.18990
C 13.52188 -4.23572 2.87821
C 14.42363 -3.80216 -0.48943
O 14.61485 -4.99455 -0.72474
C 14.90428 -2.77676 -1.60475
C 14.33095 -3.22124 -2.92242
O 13.10240 -3.20512 -3.11481
O 15.33231 -3.38380 -3.80629
C 14.81267 -3.81373 -5.13179
H 15.22705 4.15608 -1.62785
H 11.99703 4.25297 3.71715
H 12.56600 -1.97913 4.23854
H 16.23865 -0.41850 -3.18480
H 15.78677 2.35385 -3.40150
H 17.65247 0.72861 -1.72283
H 17.17528 2.28478 -1.01224
H 17.96063 2.29538 -2.56233
H 13.82910 1.17426 -4.09197
H 13.68675 -0.61990 -4.01502
H 16.04923 0.01621 -5.47159
H 14.93537 1.27894 -5.85851
H 14.33270 6.06281 -1.70033
H 14.06798 7.16789 -0.39345
H 12.68759 6.78502 -1.44925
H 12.47220 8.07000 0.87741
H 10.82582 8.29456 1.70548
H 11.01320 7.42132 0.15766
H 11.04574 2.48331 5.28655
H 12.71140 0.10443 5.93713
H 12.41962 3.31052 6.88571
H 13.76457 3.15918 5.70071
H 13.46167 1.89424 6.77951
H 10.29823 0.37577 6.62619
H 10.70327 -1.18920 5.94663
H 9.20350 1.09689 4.89467
H 8.74939 -0.64441 4.81421
H 9.96774 0.07819 3.67063
H 13.08497 -5.06471 2.33749
H 12.96260 -4.01209 3.78428
H 14.59261 -4.34129 3.07228
H 15.99492 -2.78501 -1.60919
H 15.33149 -4.74130 -5.39279
H 14.95887 -2.94821 -5.80503
H 13.77701 -4.12820 -5.18612

