%nproc=24
%mem=175gb
#p cam-b3lyp/Def2SVP td=(nstates=5)

TDDFT excited states in gaussian

0 1
Mg 0.00000 0.00000 0.00000
C -0.21700 -2.21800 2.80100
C -1.25500 2.44200 2.02600
C -0.24500 1.85000 -2.56400
C 0.14600 -2.82400 -2.03700
N -0.61700 -0.00900 2.12600
C -0.59400 -0.90800 3.10500
C -0.93600 -0.30900 4.50200
C -1.77300 0.96400 4.03200
C -1.15500 1.16800 2.66000
C -3.26300 0.68500 3.86300
C 0.34500 0.11000 5.29900
C 0.12400 0.39700 6.78700
H 1.16800 0.03300 7.73300
N -0.18500 1.96100 -0.15200
C -0.70300 2.80000 0.77700
C -0.62000 4.15600 0.19300
C -0.18700 4.01500 -1.22500
C -0.21400 2.58300 -1.38000
C -0.88700 5.40600 0.97400
C 0.18100 5.01300 -2.27700
O 0.30300 4.69000 -3.50800
C 0.31000 6.41400 -1.83700
N -0.26500 -0.41300 -2.02900
C -0.27900 0.56900 -2.93700
C -0.19600 0.02400 -4.33200
C 0.12400 -1.53300 -4.18000
C 0.08600 -1.63200 -2.63500
C -1.45100 0.20500 -5.19700
C 1.37300 -2.07000 -4.92300
C 2.62600 -1.49000 -4.30600
N 0.15000 -2.14400 0.30300
C 0.17300 -3.13600 -0.68800
C 0.17300 -4.43800 0.00400
C 0.13300 -4.11100 1.35800
C 0.08300 -2.69500 1.50200
C 0.14900 -5.71500 -0.62300
C 0.09600 -4.62900 2.71600
O 0.20800 -5.74700 3.22100
C -0.25500 -3.42800 3.70100
C 0.71700 -3.48200 4.84800
O 1.93100 -3.25500 4.66900
O 0.03800 -3.55600 6.00300
C 0.94300 -3.58300 7.18300
H -1.85900 3.22000 2.49700
H -0.21800 2.45300 -3.47400
H 0.27600 -3.74700 -2.60500
H -1.55400 -0.94900 5.13200
H -1.58500 1.83100 4.66500
H -3.48400 -0.37700 3.96900
H -3.51100 1.02700 2.85800
H -3.85200 1.30100 4.54300
H 0.66900 1.09600 4.96600
H 1.13000 -0.63900 5.18900
H -0.84400 0.02600 7.12500
H 0.06200 1.47700 6.92100
H -1.34400 5.18600 1.93800
H -1.65100 5.96300 0.43200
H 0.00700 6.02000 1.08400
H -0.63500 6.74400 -1.40500
H 0.66500 6.97000 -2.70400
H 1.04800 6.46600 -1.03600
H 0.60800 0.50100 -4.89100
H -0.69200 -2.15600 -4.54700
H -1.26700 0.74000 -6.12900
H -2.20400 0.71400 -4.59600
H -1.96700 -0.72000 -5.45300
H 1.35600 -1.75900 -5.96700
H 1.45200 -3.15700 -4.90200
H 2.71400 -0.52200 -4.79800
H 3.48700 -2.12100 -4.52900
H 2.49500 -1.30300 -3.24000
H 0.86700 -6.33300 -0.08400
H 0.40400 -5.64200 -1.68000
H -0.89100 -5.99900 -0.46300
H -1.28300 -3.58100 4.02800
H 0.69800 -4.47800 7.75500
H 0.83300 -2.61900 7.68000
H 2.00000 -3.75400 6.97600
Mg 31.53562 2.83228 2.40310
C 28.85071 3.26107 4.74542
C 33.64171 3.95611 4.83949
C 33.85080 2.89502 0.23435
C 29.14278 2.84807 -0.13062
N 31.17382 3.49204 4.48302
C 30.12095 3.55359 5.28428
C 30.45774 3.87312 6.76551
C 31.86220 4.61769 6.53755
C 32.27670 3.96046 5.22267
C 31.71968 6.11196 6.30051
C 30.62900 2.57667 7.63263
C 30.65249 2.81260 9.14443
H 30.04596 1.80924 10.01497
N 33.50676 2.87540 2.62967
C 34.19363 3.34513 3.69214
C 35.61624 3.17095 3.36048
C 35.71590 2.71228 1.94824
C 34.33246 2.83238 1.53383
C 36.71501 3.35778 4.36608
C 36.86806 2.25499 1.10585
O 36.76471 2.12994 -0.16557
C 38.14685 2.04774 1.80099
N 31.52749 3.07852 0.33873
C 32.66823 3.01200 -0.36994
C 32.38648 2.94163 -1.85184
C 30.80642 2.73002 -1.97918
C 30.41959 2.80737 -0.48594
C 32.80309 4.16565 -2.66707
C 30.32459 1.50594 -2.80510
C 30.69451 0.22484 -2.09283
N 29.37743 2.83266 2.30193
C 28.57806 2.86568 1.13831
C 27.17184 2.96967 1.57894
C 27.25283 3.01349 2.97894
C 28.61468 2.96221 3.38170
C 26.03687 3.05961 0.72461
C 26.49653 3.10217 4.20729
O 25.30018 3.08502 4.49400
C 27.50431 3.39392 5.40130
C 27.17692 2.45079 6.52639
O 27.33647 1.22497 6.39025
O 26.93838 3.16275 7.64289
C 26.61979 2.27077 8.78949
H 34.35444 4.50844 5.45255
H 34.60385 2.80818 -0.55232
H 28.33171 2.75970 -0.85659
H 29.75896 4.53964 7.25665
H 32.57056 4.37459 7.32526
H 30.68546 6.40817 6.20674
H 32.25655 6.31687 5.38355
H 32.23943 6.66935 7.08505
H 31.64253 2.18079 7.48848
H 29.87358 1.85436 7.39132
H 30.29927 3.81629 9.41051
H 31.69157 2.79586 9.48215
H 36.34991 3.85529 5.27304
H 37.42663 4.06944 3.93364
H 37.23984 2.42763 4.59420
H 38.45068 2.97440 2.28209
H 38.82443 1.63682 1.05006
H 37.99575 1.31321 2.59989
H 32.89169 2.09582 -2.30181
H 30.31970 3.58303 -2.47448
H 33.49966 3.92418 -3.49202
H 33.24571 4.88883 -1.99503
H 31.98174 4.73001 -3.10533
H 30.83021 1.47977 -3.77351
H 29.25719 1.50890 -2.99909
H 31.73402 0.06587 -2.39487
H 30.05814 -0.59406 -2.42218
H 30.68455 0.36219 -1.00531
H 25.28273 2.40363 1.13869
H 26.28622 2.78437 -0.29805
H 25.80593 4.12409 0.81852
H 27.37542 4.43743 5.69121
H 25.65112 2.59203 9.18466
H 27.48892 2.33773 9.47057
H 26.42435 1.22698 8.57326

