%nproc=24
%mem=175gb
#p cam-b3lyp/Def2SVP td=(nstates=5)

TDDFT excited states in gaussian

0 1
Mg 7.87509 0.70724 0.60527
C 8.05176 3.40112 2.96977
C 8.37216 -1.42375 3.22182
C 8.17426 -1.64849 -1.49911
C 8.53339 3.04349 -1.89559
N 8.16051 1.06293 2.76959
C 8.14716 2.12441 3.56168
C 8.16054 1.79521 5.07859
C 8.83198 0.33841 5.00258
C 8.40290 -0.05512 3.59059
C 10.35056 0.37253 5.04824
C 6.71651 1.73100 5.68905
C 6.66473 1.72067 7.21842
H 5.56298 2.41202 7.88223
N 7.73399 -1.25736 0.84811
C 7.94739 -1.95429 1.98391
C 7.73652 -3.36762 1.63434
C 7.54269 -3.46277 0.16190
C 7.83658 -2.09928 -0.23131
C 7.65379 -4.45690 2.66393
C 7.16879 -4.59668 -0.74399
O 7.29022 -4.50970 -2.01698
C 6.74476 -5.84429 -0.09194
N 8.50107 0.65814 -1.37667
C 8.48603 -0.48884 -2.07819
C 8.71299 -0.23179 -3.54884
C 8.64251 1.35634 -3.72328
C 8.46817 1.76588 -2.24433
C 10.03428 -0.74792 -4.11822
C 7.63119 1.90557 -4.76648
C 6.21678 1.63914 -4.30403
N 8.04887 2.85786 0.49259
C 8.35500 3.63022 -0.64927
C 8.47565 5.03418 -0.20569
C 8.25229 4.97762 1.17829
C 8.02955 3.63068 1.57279
C 8.80404 6.14336 -1.03514
C 8.16481 5.74973 2.39685
O 8.18035 6.94975 2.66788
C 8.15635 4.74761 3.63057
C 7.04626 5.16133 4.55743
O 5.85896 5.08439 4.19548
O 7.55328 5.37171 5.78586
C 6.48868 5.77353 6.74346
H 8.74828 -2.16093 3.93175
H 8.18159 -2.40889 -2.28347
H 8.63998 3.84445 -2.63029
H 8.77235 2.45561 5.68136
H 8.39645 -0.33596 5.73532
H 10.73235 1.38175 5.00510
H 10.68352 -0.19499 4.18910
H 10.71355 -0.16919 5.92637
H 6.28280 0.74469 5.47971
H 6.10771 2.52976 5.31227
H 7.62406 2.00868 7.66528
H 6.51106 0.69201 7.55349
H 7.99870 -4.10953 3.64565
H 8.38064 -5.22435 2.37660
H 6.66227 -4.91156 2.71736
H 7.54153 -6.20211 0.55581
H 6.43328 -6.50629 -0.90226
H 5.88715 -5.62719 0.55457
H 7.93170 -0.68592 -4.14588
H 9.60541 1.77313 -4.05336
H 9.90126 -1.44203 -4.96944
H 10.58619 -1.22637 -3.32009
H 10.72769 0.02372 -4.44831
H 7.74951 1.38422 -5.71955
H 7.74664 2.96623 -4.96310
H 6.04274 0.60745 -4.62402
H 5.52118 2.32413 -4.78462
H 6.14974 1.66074 -3.21009
H 8.13820 6.94901 -0.75570
H 8.70675 5.89380 -2.08967
H 9.84622 6.30186 -0.74529
H 9.13420 4.80958 4.10968
H 6.79935 6.72515 7.18571
H 6.36531 4.91526 7.43041
H 5.52008 6.03650 6.33467

