%nproc=24
%mem=175gb
#p cam-b3lyp/Def2SVP td=(nstates=5)

TDDFT excited states in gaussian

0 1
Mg 8.94224 0.80178 0.67223
C 8.68724 3.40334 -1.78662
C 8.45243 -1.43250 -1.85812
C 8.71213 -1.48000 2.86493
C 8.27177 3.21620 3.09436
N 8.62389 1.07251 -1.49978
C 8.60807 2.10424 -2.33022
C 8.58219 1.71932 -3.83379
C 7.93859 0.25451 -3.69597
C 8.39206 -0.07911 -2.27621
C 6.41920 0.25974 -3.72327
C 10.01958 1.65858 -4.46007
C 10.05284 1.59298 -5.98858
H 11.13352 2.27908 -6.69134
N 9.11641 -1.16759 0.49950
C 8.90197 -1.90949 -0.60723
C 9.14302 -3.30502 -0.20903
C 9.35655 -3.34250 1.26329
C 9.04250 -1.97096 1.61019
C 9.23315 -4.42975 -1.19912
C 9.76226 -4.43548 2.20509
O 9.65482 -4.30396 3.47552
C 10.20112 -5.69842 1.59364
N 8.34154 0.81435 2.66254
C 8.38622 -0.30562 3.40524
C 8.17257 0.00120 4.86832
C 8.21601 1.59568 4.98371
C 8.36470 1.95364 3.48867
C 6.86804 -0.51722 5.47315
C 9.22975 2.20090 5.99303
C 10.64305 1.94302 5.52243
N 8.73038 2.95163 0.70852
C 8.42411 3.75983 1.82525
C 8.27229 5.14415 1.33228
C 8.47971 5.04077 -0.05147
C 8.72231 3.68445 -0.39935
C 7.93375 6.27701 2.12484
C 8.53809 5.76902 -1.29845
O 8.49720 6.95780 -1.61290
C 8.54987 4.72255 -2.49475
C 9.64076 5.12173 -3.45033
O 10.83361 5.07941 -3.10115
O 9.11498 5.27771 -4.67899
C 10.16023 5.66306 -5.66427
H 8.08126 -2.20189 -2.53574
H 8.72835 -2.21107 3.67657
H 8.15949 4.04158 3.80063
H 7.95103 2.34607 -4.45235
H 8.37744 -0.43843 -4.40915
H 6.01950 1.26286 -3.71210
H 6.10725 -0.28169 -2.83976
H 6.05550 -0.32029 -4.57628
H 10.47386 0.68855 -4.22045
H 10.61817 2.48142 -4.12059
H 9.08299 1.84715 -6.43326
H 10.22127 0.55562 -6.28780
H 8.86993 -4.12492 -2.18834
H 8.52407 -5.19901 -0.87461
H 10.23211 -4.86824 -1.24869
H 9.40319 -6.09401 0.96971
H 10.53459 -6.32451 2.42351
H 11.04663 -5.48991 0.92863
H 8.96931 -0.41662 5.47143
H 7.24973 2.00701 5.31073
H 7.02419 -1.17708 6.34738
H 6.31529 -1.03448 4.70021
H 6.16467 0.25349 5.78376
H 9.13268 1.71289 6.96596
H 9.09726 3.26583 6.15226
H 10.83991 0.92706 5.87762
H 11.33178 2.65755 5.96868
H 10.69631 1.92558 4.42766
H 8.58121 7.08364 1.80759
H 8.04849 6.06816 3.18643
H 6.88537 6.40606 1.84284
H 7.56526 4.74935 -2.96316
H 9.82676 6.59207 -6.13694
H 10.29093 4.78247 -6.32095
H 11.12877 5.95817 -5.27788

