%nproc=24
%mem=175gb
#p cam-b3lyp/Def2SVP td=(nstates=5)

TDDFT excited states in gaussian

0 1
Mg 0.00000 0.00000 0.00000
C -0.21700 -2.21800 2.80100
C -1.25500 2.44200 2.02600
C -0.24500 1.85000 -2.56400
C 0.14600 -2.82400 -2.03700
N -0.61700 -0.00900 2.12600
C -0.59400 -0.90800 3.10500
C -0.93600 -0.30900 4.50200
C -1.77300 0.96400 4.03200
C -1.15500 1.16800 2.66000
C -3.26300 0.68500 3.86300
C 0.34500 0.11000 5.29900
C 0.12400 0.39700 6.78700
H 1.16800 0.03300 7.73300
N -0.18500 1.96100 -0.15200
C -0.70300 2.80000 0.77700
C -0.62000 4.15600 0.19300
C -0.18700 4.01500 -1.22500
C -0.21400 2.58300 -1.38000
C -0.88700 5.40600 0.97400
C 0.18100 5.01300 -2.27700
O 0.30300 4.69000 -3.50800
C 0.31000 6.41400 -1.83700
N -0.26500 -0.41300 -2.02900
C -0.27900 0.56900 -2.93700
C -0.19600 0.02400 -4.33200
C 0.12400 -1.53300 -4.18000
C 0.08600 -1.63200 -2.63500
C -1.45100 0.20500 -5.19700
C 1.37300 -2.07000 -4.92300
C 2.62600 -1.49000 -4.30600
N 0.15000 -2.14400 0.30300
C 0.17300 -3.13600 -0.68800
C 0.17300 -4.43800 0.00400
C 0.13300 -4.11100 1.35800
C 0.08300 -2.69500 1.50200
C 0.14900 -5.71500 -0.62300
C 0.09600 -4.62900 2.71600
O 0.20800 -5.74700 3.22100
C -0.25500 -3.42800 3.70100
C 0.71700 -3.48200 4.84800
O 1.93100 -3.25500 4.66900
O 0.03800 -3.55600 6.00300
C 0.94300 -3.58300 7.18300
H -1.85900 3.22000 2.49700
H -0.21800 2.45300 -3.47400
H 0.27600 -3.74700 -2.60500
H -1.55400 -0.94900 5.13200
H -1.58500 1.83100 4.66500
H -3.48400 -0.37700 3.96900
H -3.51100 1.02700 2.85800
H -3.85200 1.30100 4.54300
H 0.66900 1.09600 4.96600
H 1.13000 -0.63900 5.18900
H -0.84400 0.02600 7.12500
H 0.06200 1.47700 6.92100
H -1.34400 5.18600 1.93800
H -1.65100 5.96300 0.43200
H 0.00700 6.02000 1.08400
H -0.63500 6.74400 -1.40500
H 0.66500 6.97000 -2.70400
H 1.04800 6.46600 -1.03600
H 0.60800 0.50100 -4.89100
H -0.69200 -2.15600 -4.54700
H -1.26700 0.74000 -6.12900
H -2.20400 0.71400 -4.59600
H -1.96700 -0.72000 -5.45300
H 1.35600 -1.75900 -5.96700
H 1.45200 -3.15700 -4.90200
H 2.71400 -0.52200 -4.79800
H 3.48700 -2.12100 -4.52900
H 2.49500 -1.30300 -3.24000
H 0.86700 -6.33300 -0.08400
H 0.40400 -5.64200 -1.68000
H -0.89100 -5.99900 -0.46300
H -1.28300 -3.58100 4.02800
H 0.69800 -4.47800 7.75500
H 0.83300 -2.61900 7.68000
H 2.00000 -3.75400 6.97600
Mg 10.51832 0.94782 0.80581
C 9.23390 -1.04219 3.50196
C 10.32136 3.63697 2.89489
C 11.21749 2.79985 -1.67382
C 9.54631 -1.60562 -1.35773
N 9.84877 1.14509 2.90462
C 9.44012 0.30962 3.84768
C 9.31820 0.94321 5.25951
C 9.12378 2.47536 4.81952
C 9.83795 2.43465 3.47008
C 7.67143 2.85309 4.58008
C 10.61963 0.75194 6.11491
C 10.46347 1.07084 7.60342
H 11.21084 0.26985 8.56899
N 11.19883 2.81112 0.74606
C 11.04822 3.76310 1.69069
C 11.71256 4.96407 1.16107
C 12.12439 4.69174 -0.24283
C 11.49736 3.40278 -0.45616
C 11.97232 6.18490 1.99506
C 12.93612 5.46930 -1.23413
O 12.96888 5.15073 -2.47521
C 13.61676 6.66953 -0.72651
N 10.21062 0.74067 -1.23986
C 10.65904 1.66824 -2.10384
C 10.56869 1.17568 -3.52848
C 10.19012 -0.37459 -3.42387
C 10.03274 -0.49384 -1.89207
C 9.54911 1.88952 -4.41576
C 11.12629 -1.37828 -4.15108
C 12.47957 -1.40264 -3.47770
N 9.73424 -1.05448 1.01577
C 9.37211 -1.94183 -0.02132
C 8.78305 -3.13791 0.61494
C 8.82259 -2.85140 1.98784
C 9.37727 -1.55899 2.19157
C 8.25787 -4.27048 -0.06885
C 8.51144 -3.34401 3.31042
O 8.10549 -4.41225 3.76629
C 8.64744 -2.14255 4.34212
C 9.44887 -2.62889 5.51843
O 10.64364 -2.94577 5.38161
O 8.74007 -2.43399 6.64537
C 9.49781 -2.89065 7.84082
H 10.08674 4.57983 3.38972
H 11.54186 3.35197 -2.55894
H 9.30901 -2.48652 -1.95803
H 8.46257 0.61006 5.83457
H 9.63504 3.15001 5.50130
H 7.01824 1.99465 4.63085
H 7.64109 3.29368 3.59215
H 7.36860 3.64401 5.27223
H 11.34952 1.52184 5.83338
H 11.01076 -0.23989 5.99694
H 9.41039 1.14689 7.90041
H 10.86694 2.06931 7.78859
H 11.40994 6.15605 2.93649
H 11.55069 7.03818 1.45284
H 13.03694 6.36282 2.16117
H 12.88078 7.35304 -0.30986
H 14.21710 7.03952 -1.55992
H 14.27566 6.37563 0.09816
H 11.52290 1.27121 -4.03194
H 9.20140 -0.58280 -3.85851
H 9.99574 2.32813 -5.32802
H 9.05983 2.65379 -3.82667
H 8.71045 1.27626 -4.74100
H 11.29809 -1.05755 -5.18151
H 10.73067 -2.38773 -4.18972
H 12.99237 -0.54495 -3.92322
H 13.00051 -2.33217 -3.69825
H 12.38769 -1.20973 -2.40253
H 8.61159 -5.14531 0.46036
H 8.56711 -4.28381 -1.11191
H 7.18607 -4.08383 0.03917
H 7.63921 -1.84205 4.62978
H 8.86282 -3.61116 8.36555
H 9.77441 -1.97030 8.38872
H 10.39177 -3.47973 7.67267

