%nproc=24
%mem=175gb
#p cam-b3lyp/Def2SVP td=(nstates=5)

TDDFT excited states in gaussian

0 1
Mg 15.77302 1.41871 1.20581
C 15.84565 -2.13158 1.72470
C 14.62059 1.71196 4.40276
C 15.26997 4.49930 0.63634
C 15.82170 0.77917 -2.21973
N 15.33139 -0.08819 2.76352
C 15.45580 -1.40274 2.86761
C 15.22255 -1.95965 4.29765
C 14.30700 -0.77185 4.87191
C 14.80286 0.36915 3.98595
C 12.82425 -0.97283 4.60659
C 16.55782 -2.09963 5.10974
C 16.44546 -2.92219 6.39524
H 17.57923 -3.75297 6.79130
N 15.52484 2.93347 2.46377
C 15.06876 2.87130 3.73240
C 15.05233 4.25830 4.22244
C 15.37939 5.16134 3.08566
C 15.38376 4.21384 1.98916
C 14.82488 4.60929 5.66414
C 15.63216 6.63598 2.99778
O 15.66350 7.24786 1.87197
C 15.74897 7.35825 4.27300
N 15.36092 2.48232 -0.53236
C 15.23904 3.82121 -0.51107
C 15.21927 4.38946 -1.91003
C 15.59795 3.17095 -2.87409
C 15.68773 2.03869 -1.82751
C 13.89315 5.00153 -2.36075
C 16.79702 3.38289 -3.83844
C 18.08182 3.48913 -3.04888
N 16.00967 -0.32509 -0.04767
C 15.97247 -0.37285 -1.45849
C 16.06546 -1.79469 -1.84858
C 16.12762 -2.48263 -0.62737
C 16.05661 -1.55652 0.44816
C 16.03539 -2.29553 -3.18063
C 16.22647 -3.78250 -0.00344
O 16.40294 -4.93016 -0.41021
C 15.92092 -3.62282 1.54818
C 16.98418 -4.36572 2.30983
O 18.16860 -3.98841 2.27262
O 16.39787 -5.26162 3.12467
C 17.41125 -6.01586 3.90953
H 14.04295 1.90030 5.30816
H 15.20587 5.55981 0.38200
H 15.94188 0.50442 -3.26984
H 14.68230 -2.89790 4.33723
H 14.53175 -0.56931 5.91586
H 12.64084 -1.82565 3.97004
H 12.48517 -0.06350 4.12785
H 12.27758 -1.03774 5.55172
H 16.82277 -1.12276 5.53431
H 17.33909 -2.49870 4.49250
H 15.51364 -3.49930 6.43519
H 16.37161 -2.23500 7.24160
H 14.44812 3.75011 6.23271
H 14.00391 5.33395 5.69114
H 15.70489 5.05457 6.13314
H 14.83636 7.22419 4.84887
H 16.01727 8.38211 4.00543
H 16.55892 6.90759 4.85739
H 15.96242 5.16952 -2.02112
H 14.76809 2.91119 -3.54766
H 13.98544 6.05712 -2.67901
H 13.18188 4.90938 -1.55073
H 13.39179 4.47289 -3.16969
H 16.68609 4.32606 -4.37908
H 16.89953 2.59710 -4.57940
H 18.09630 4.53899 -2.74122
H 18.93798 3.24987 -3.67640
H 18.03610 2.87957 -2.13893
H 16.80456 -3.05358 -3.24567
H 16.19574 -1.50196 -3.90748
H 15.01536 -2.68714 -3.21878
H 14.92612 -4.03139 1.72992
H 17.23566 -7.07926 3.71973
H 17.30199 -5.66571 4.95318
H 18.44923 -5.91688 3.61416

