%nproc=24
%mem=175gb
#p cam-b3lyp/Def2SVP td=(nstates=5)

TDDFT excited states in gaussian

0 1
Mg 15.77177 1.41477 1.20546
C 13.18949 0.91419 3.64684
C 17.38593 3.32672 3.52355
C 17.83432 2.24253 -1.05907
C 13.46760 0.45232 -1.22563
N 15.25425 1.97376 3.28199
C 14.27748 1.67396 4.12482
C 14.51659 2.15116 5.58245
C 15.53946 3.35110 5.27789
C 16.12785 2.84298 3.96324
C 14.84832 4.67785 5.01066
C 15.18021 1.04277 6.47299
C 15.16008 1.32817 7.97629
H 14.99314 0.20593 8.89563
N 17.59355 2.18889 1.34830
C 18.08989 2.91853 2.36936
C 19.46571 3.26765 1.98285
C 19.68544 2.82443 0.57928
C 18.34367 2.41108 0.22027
C 20.44739 3.88389 2.93677
C 20.89930 2.79154 -0.29915
O 20.81150 2.58892 -1.56171
C 22.18442 3.09611 0.34677
N 15.61163 1.56193 -0.86216
C 16.67463 1.89297 -1.61606
C 16.39463 1.66747 -3.08274
C 15.00127 0.88453 -3.13871
C 14.65801 0.87088 -1.63292
C 16.30536 2.92692 -3.94426
C 14.98096 -0.46146 -3.91367
C 15.81882 -1.48839 -3.18647
N 13.76391 0.61699 1.19463
C 12.97446 0.30916 0.06499
C 11.64302 -0.09497 0.56136
C 11.74389 0.02885 1.95527
C 13.03985 0.49775 2.30187
C 10.53005 -0.46165 -0.24670
C 11.04534 -0.12033 3.21164
O 9.94898 -0.56564 3.54845
C 11.90940 0.56707 4.35500
C 11.98710 -0.38677 5.51545
O 12.58379 -1.47206 5.40269
O 11.53602 0.22939 6.62326
C 11.60365 -0.67288 7.80358
H 17.86236 4.12550 4.09262
H 18.54237 2.40904 -1.87419
H 12.72516 0.04408 -1.91468
H 13.63611 2.53192 6.08599
H 16.31072 3.41595 6.04099
H 13.77551 4.56884 4.95302
H 15.24397 5.03089 4.06733
H 15.14876 5.41684 5.75896
H 16.26350 1.04250 6.29629
H 14.73798 0.08451 6.28116
H 14.46939 2.14077 8.23236
H 16.14152 1.70789 8.27058
H 19.95168 4.24626 3.84582
H 20.83274 4.79047 2.45774
H 21.28511 3.22159 3.16536
H 22.13890 4.08714 0.79201
H 22.94308 2.93512 -0.42160
H 22.33911 2.38851 1.16895
H 17.16273 1.05049 -3.53269
H 14.21945 1.47901 -3.63387
H 17.01689 2.92753 -4.79149
H 16.46959 3.78726 -3.30915
H 15.32098 3.13226 -4.36143
H 15.43136 -0.33657 -4.90145
H 13.98259 -0.85894 -4.06288
H 16.83406 -1.26501 -3.52775
H 15.52021 -2.49592 -3.46887
H 15.79135 -1.32304 -2.10316
H 10.08410 -1.33286 0.21441
H 10.83273 -0.66453 -1.27188
H 9.92535 0.44587 -0.16919
H 11.41308 1.50013 4.62453
H 10.59708 -0.71588 8.23095
H 12.40660 -0.26488 8.44589
H 11.80101 -1.72276 7.62122

