%nproc=24
%mem=175gb
#p cam-b3lyp/Def2SVP td=(nstates=5)

TDDFT excited states in gaussian

0 1
Mg 0.00000 0.00000 0.00000
C -0.21700 -2.21800 2.80100
C -1.25500 2.44200 2.02600
C -0.24500 1.85000 -2.56400
C 0.14600 -2.82400 -2.03700
N -0.61700 -0.00900 2.12600
C -0.59400 -0.90800 3.10500
C -0.93600 -0.30900 4.50200
C -1.77300 0.96400 4.03200
C -1.15500 1.16800 2.66000
C -3.26300 0.68500 3.86300
C 0.34500 0.11000 5.29900
C 0.12400 0.39700 6.78700
H 1.16800 0.03300 7.73300
N -0.18500 1.96100 -0.15200
C -0.70300 2.80000 0.77700
C -0.62000 4.15600 0.19300
C -0.18700 4.01500 -1.22500
C -0.21400 2.58300 -1.38000
C -0.88700 5.40600 0.97400
C 0.18100 5.01300 -2.27700
O 0.30300 4.69000 -3.50800
C 0.31000 6.41400 -1.83700
N -0.26500 -0.41300 -2.02900
C -0.27900 0.56900 -2.93700
C -0.19600 0.02400 -4.33200
C 0.12400 -1.53300 -4.18000
C 0.08600 -1.63200 -2.63500
C -1.45100 0.20500 -5.19700
C 1.37300 -2.07000 -4.92300
C 2.62600 -1.49000 -4.30600
N 0.15000 -2.14400 0.30300
C 0.17300 -3.13600 -0.68800
C 0.17300 -4.43800 0.00400
C 0.13300 -4.11100 1.35800
C 0.08300 -2.69500 1.50200
C 0.14900 -5.71500 -0.62300
C 0.09600 -4.62900 2.71600
O 0.20800 -5.74700 3.22100
C -0.25500 -3.42800 3.70100
C 0.71700 -3.48200 4.84800
O 1.93100 -3.25500 4.66900
O 0.03800 -3.55600 6.00300
C 0.94300 -3.58300 7.18300
H -1.85900 3.22000 2.49700
H -0.21800 2.45300 -3.47400
H 0.27600 -3.74700 -2.60500
H -1.55400 -0.94900 5.13200
H -1.58500 1.83100 4.66500
H -3.48400 -0.37700 3.96900
H -3.51100 1.02700 2.85800
H -3.85200 1.30100 4.54300
H 0.66900 1.09600 4.96600
H 1.13000 -0.63900 5.18900
H -0.84400 0.02600 7.12500
H 0.06200 1.47700 6.92100
H -1.34400 5.18600 1.93800
H -1.65100 5.96300 0.43200
H 0.00700 6.02000 1.08400
H -0.63500 6.74400 -1.40500
H 0.66500 6.97000 -2.70400
H 1.04800 6.46600 -1.03600
H 0.60800 0.50100 -4.89100
H -0.69200 -2.15600 -4.54700
H -1.26700 0.74000 -6.12900
H -2.20400 0.71400 -4.59600
H -1.96700 -0.72000 -5.45300
H 1.35600 -1.75900 -5.96700
H 1.45200 -3.15700 -4.90200
H 2.71400 -0.52200 -4.79800
H 3.48700 -2.12100 -4.52900
H 2.49500 -1.30300 -3.24000
H 0.86700 -6.33300 -0.08400
H 0.40400 -5.64200 -1.68000
H -0.89100 -5.99900 -0.46300
H -1.28300 -3.58100 4.02800
H 0.69800 -4.47800 7.75500
H 0.83300 -2.61900 7.68000
H 2.00000 -3.75400 6.97600
Mg 8.94083 0.80509 0.68693
C 8.94898 -2.58488 1.86468
C 7.74357 1.70896 3.75030
C 8.49569 3.72973 -0.46013
C 9.03266 -0.46785 -2.55605
N 8.45112 -0.37623 2.49162
C 8.55300 -1.64921 2.84303
C 8.28871 -1.92423 4.34771
C 7.38331 -0.63812 4.67182
C 7.91096 0.30951 3.59652
C 5.90186 -0.86660 4.42191
C 9.60878 -1.92589 5.19590
C 9.46338 -2.49052 6.61075
H 10.57750 -3.24627 7.17646
N 8.69718 2.53244 1.63323
C 8.22048 2.71576 2.88241
C 8.21845 4.17026 3.10283
C 8.57747 4.83917 1.82283
C 8.58386 3.70238 0.92408
C 7.97419 4.78898 4.44854
C 8.85497 6.26765 1.46417
O 8.91355 6.65642 0.24423
C 8.96337 7.21532 2.58294
N 8.57278 1.52796 -1.22732
C 8.47186 2.84839 -1.46012
C 8.48290 3.14360 -2.94104
C 8.85714 1.76082 -3.65198
C 8.91263 0.84456 -2.40990
C 7.17384 3.67674 -3.52286
C 10.07430 1.77240 -4.61691
C 11.34817 2.00894 -3.83801
N 9.16924 -1.14619 -0.21216
C 9.15324 -1.45796 -1.58934
C 9.22970 -2.92885 -1.70366
C 9.26192 -3.37558 -0.37404
C 9.18889 -2.26289 0.50692
C 9.21242 -3.67086 -2.91826
C 9.33038 -4.53604 0.48464
O 9.49491 -5.74187 0.30397
C 9.00329 -4.08354 1.97280
C 10.04263 -4.68335 2.87973
O 11.23333 -4.33481 2.79396
O 9.42955 -5.40251 3.83750
C 10.41848 -6.00846 4.76844
H 7.15498 2.07152 4.59350
H 8.45241 4.72421 -0.91027
H 9.16480 -0.93670 -3.53349
H 7.73307 -2.83138 4.55294
H 7.59497 -0.24572 5.66307
H 5.71486 -1.82153 3.95364
H 5.58476 -0.05932 3.77478
H 5.33959 -0.74567 5.35227
H 9.88257 -0.89004 5.43420
H 10.39313 -2.44380 4.67899
H 8.52200 -3.03796 6.74136
H 9.38728 -1.65552 7.31148
H 7.57503 4.05692 5.16138
H 7.16451 5.51614 4.32393
H 8.85375 5.30334 4.84156
H 8.03989 7.20354 3.15697
H 9.25203 8.16711 2.13278
H 9.75687 6.87239 3.25628
H 9.23998 3.87936 -3.18307
H 8.03385 1.38956 -4.27983
H 7.28783 4.65238 -4.03198
H 6.44867 3.74760 -2.72308
H 6.67681 3.01178 -4.22713
H 9.98678 2.59838 -5.32701
H 10.17583 0.86004 -5.19508
H 11.37454 3.09767 -3.73281
H 12.21009 1.64510 -4.39366
H 11.27862 1.58203 -2.83075
H 9.97038 -4.43730 -2.82568
H 9.39665 -3.03025 -3.77817
H 8.18702 -4.04970 -2.90080
H 7.99942 -4.43799 2.20984
H 10.22901 -7.08627 4.77858
H 10.29856 -5.46691 5.72557
H 11.46238 -5.97995 4.47875

