%nproc=24
%mem=175gb
#p cam-b3lyp/Def2SVP td=(nstates=5)

TDDFT excited states in gaussian

0 1
Mg 10.50065 0.94911 0.79891
C 8.93784 -1.86945 -0.77982
C 9.15497 2.88602 -1.66526
C 12.22476 3.37425 1.90054
C 12.60811 -1.30376 2.42029
N 9.22798 0.45621 -0.94166
C 8.64621 -0.63952 -1.40565
C 7.63581 -0.39262 -2.55790
C 8.22598 0.99854 -3.10127
C 8.88338 1.50293 -1.81827
C 9.30702 0.82314 -4.15481
C 6.16457 -0.22840 -2.03782
C 5.08779 -0.29327 -3.12322
H 3.80715 -0.91454 -2.79693
N 10.29473 2.90301 0.51880
C 9.70161 3.51717 -0.52632
C 9.82952 4.96019 -0.27044
C 10.69094 5.14948 0.92825
C 11.13016 3.78722 1.15499
C 9.10397 5.99720 -1.07767
C 11.06847 6.35864 1.72925
O 12.01967 6.32753 2.58778
C 10.35430 7.60407 1.41243
N 12.30773 1.04415 1.82252
C 12.80986 2.22276 2.23077
C 13.96730 2.02318 3.17992
C 13.98363 0.45946 3.51474
C 12.83792 -0.00908 2.59105
C 15.33913 2.44515 2.65416
C 13.93366 0.06042 5.01505
C 12.59114 0.43075 5.60316
N 10.63618 -1.19955 0.98043
C 11.61184 -1.93599 1.68740
C 11.35421 -3.36635 1.42258
C 10.25192 -3.36194 0.55458
C 9.86346 -2.02272 0.28060
C 12.12322 -4.45609 1.91977
C 9.33526 -4.18540 -0.20064
O 9.12432 -5.39431 -0.28883
C 8.52267 -3.25253 -1.19856
C 7.06603 -3.61069 -1.08707
O 6.44410 -3.40653 -0.02966
O 6.59631 -3.93050 -2.30668
C 5.15250 -4.28261 -2.24955
H 8.97175 3.54755 -2.51242
H 12.78728 4.17071 2.39319
H 13.15996 -2.07164 2.96665
H 7.65370 -1.13686 -3.34502
H 7.43033 1.67076 -3.41176
H 9.58408 -0.21317 -4.27912
H 10.15290 1.40187 -3.80752
H 8.99368 1.28271 -5.09658
H 6.02028 0.80308 -1.69144
H 5.94890 -0.94726 -1.27144
H 5.47820 -0.69089 -4.06790
H 4.78020 0.72622 -3.36826
H 8.67870 5.56888 -1.99369
H 9.85642 6.70881 -1.43445
H 8.35533 6.53734 -0.49418
H 10.50961 7.85308 0.36537
H 10.69763 8.33324 2.14885
H 9.27947 7.43296 1.53916
H 13.81472 2.57752 4.09781
H 14.90047 -0.02595 3.14919
H 15.84209 3.19204 3.29701
H 15.21661 2.82869 1.64996
H 16.04715 1.63155 2.50594
H 14.68456 0.61781 5.58039
H 14.11814 -0.99463 5.18775
H 12.71381 1.48935 5.85094
H 12.38600 -0.16161 6.49258
H 11.79801 0.35827 4.84993
H 11.41965 -5.21087 2.24503
H 12.77636 -4.14393 2.73201
H 12.68517 -4.72430 1.02113
H 8.91194 -3.42875 -2.20205
H 5.04945 -5.28048 -2.68695
H 4.62262 -3.45371 -2.75542
H 4.71189 -4.43404 -1.27109

