%nproc=24
%mem=175gb
#p cam-b3lyp/Def2SVP td=(nstates=5)

TDDFT excited states in gaussian

0 1
Mg 13.14665 1.17675 0.99489
C 13.14815 1.83167 -2.53358
C 12.61679 -2.10577 0.23405
C 12.69139 0.63609 4.08809
C 12.53465 4.57260 1.48420
N 12.92939 0.12211 -0.93715
C 13.00951 0.46489 -2.21403
C 13.01759 -0.73230 -3.20208
C 12.27957 -1.81515 -2.27385
C 12.65658 -1.25890 -0.90231
C 10.76560 -1.78535 -2.40164
C 14.47145 -1.19034 -3.57424
C 14.55928 -2.14624 -4.76601
H 15.70663 -2.03706 -5.66275
N 13.20485 -0.51890 2.02443
C 12.98749 -1.76474 1.55338
C 13.12604 -2.66230 2.71068
C 13.28012 -1.82952 3.93438
C 13.03864 -0.50958 3.38707
C 13.18421 -4.15654 2.57918
C 13.58077 -2.16669 5.36341
O 13.43296 -1.30788 6.30332
C 13.96362 -3.55855 5.64202
N 12.47186 2.37796 2.55185
C 12.41842 1.91141 3.81177
C 12.16816 3.02827 4.79686
C 12.30594 4.38165 3.95605
C 12.53388 3.78408 2.55022
C 10.81171 3.00273 5.50098
C 13.31573 5.43778 4.48290
C 14.72736 4.91321 4.35046
N 13.06730 2.93854 -0.25325
C 12.76907 4.25806 0.15172
C 12.72244 5.08821 -1.06939
C 12.97606 4.18249 -2.11046
C 13.14726 2.87621 -1.57771
C 12.42461 6.47925 -1.11876
C 13.12737 4.03256 -3.53991
O 13.17240 4.80724 -4.49468
C 13.12018 2.48191 -3.88895
C 14.26963 2.21011 -4.82030
O 15.44326 2.34930 -4.43323
O 13.80213 1.62529 -5.93825
C 14.90636 1.32606 -6.88850
H 12.22493 -3.11624 0.11458
H 12.63104 0.52478 5.17319
H 12.44672 5.65842 1.56120
H 12.45075 -0.57435 -4.11177
H 12.70167 -2.80716 -2.41215
H 10.42874 -0.95845 -3.00902
H 10.38695 -1.69223 -1.39219
H 10.39967 -2.74676 -2.77329
H 14.85514 -1.84404 -2.78039
H 15.10644 -0.34253 -3.74346
H 13.62487 -2.17698 -5.33948
H 14.67442 -3.16442 -4.38644
H 12.87888 -4.48442 1.57785
H 12.41685 -4.56624 3.24489
H 14.15523 -4.56699 2.86437
H 13.16726 -4.22404 5.31737
H 14.22549 -3.58310 6.70159
H 14.84536 -3.80598 5.04042
H 12.91369 3.02522 5.58253
H 11.35518 4.93302 3.91277
H 10.89293 2.98197 6.60418
H 10.25805 2.14440 5.14423
H 10.14608 3.82716 5.25108
H 13.15128 5.62088 5.54760
H 13.24352 6.39460 3.97666
H 14.84703 4.29772 5.24709
H 15.44142 5.73417 4.33707
H 14.82146 4.25161 3.48151
H 13.13257 6.92507 -1.80472
H 12.48531 6.93409 -0.13225
H 11.39787 6.44572 -1.49284
H 12.15785 2.25412 -4.34898
H 14.64955 1.80581 -7.83801
H 15.00733 0.22445 -6.89183
H 15.87577 1.76562 -6.68483

