%nproc=24
%mem=175gb
#p cam-b3lyp/Def2SVP td=(nstates=5)

TDDFT excited states in gaussian

0 1
Mg 0.00000 0.00000 0.00000
C -0.21700 -2.21800 2.80100
C -1.25500 2.44200 2.02600
C -0.24500 1.85000 -2.56400
C 0.14600 -2.82400 -2.03700
N -0.61700 -0.00900 2.12600
C -0.59400 -0.90800 3.10500
C -0.93600 -0.30900 4.50200
C -1.77300 0.96400 4.03200
C -1.15500 1.16800 2.66000
C -3.26300 0.68500 3.86300
C 0.34500 0.11000 5.29900
C 0.12400 0.39700 6.78700
H 1.16800 0.03300 7.73300
N -0.18500 1.96100 -0.15200
C -0.70300 2.80000 0.77700
C -0.62000 4.15600 0.19300
C -0.18700 4.01500 -1.22500
C -0.21400 2.58300 -1.38000
C -0.88700 5.40600 0.97400
C 0.18100 5.01300 -2.27700
O 0.30300 4.69000 -3.50800
C 0.31000 6.41400 -1.83700
N -0.26500 -0.41300 -2.02900
C -0.27900 0.56900 -2.93700
C -0.19600 0.02400 -4.33200
C 0.12400 -1.53300 -4.18000
C 0.08600 -1.63200 -2.63500
C -1.45100 0.20500 -5.19700
C 1.37300 -2.07000 -4.92300
C 2.62600 -1.49000 -4.30600
N 0.15000 -2.14400 0.30300
C 0.17300 -3.13600 -0.68800
C 0.17300 -4.43800 0.00400
C 0.13300 -4.11100 1.35800
C 0.08300 -2.69500 1.50200
C 0.14900 -5.71500 -0.62300
C 0.09600 -4.62900 2.71600
O 0.20800 -5.74700 3.22100
C -0.25500 -3.42800 3.70100
C 0.71700 -3.48200 4.84800
O 1.93100 -3.25500 4.66900
O 0.03800 -3.55600 6.00300
C 0.94300 -3.58300 7.18300
H -1.85900 3.22000 2.49700
H -0.21800 2.45300 -3.47400
H 0.27600 -3.74700 -2.60500
H -1.55400 -0.94900 5.13200
H -1.58500 1.83100 4.66500
H -3.48400 -0.37700 3.96900
H -3.51100 1.02700 2.85800
H -3.85200 1.30100 4.54300
H 0.66900 1.09600 4.96600
H 1.13000 -0.63900 5.18900
H -0.84400 0.02600 7.12500
H 0.06200 1.47700 6.92100
H -1.34400 5.18600 1.93800
H -1.65100 5.96300 0.43200
H 0.00700 6.02000 1.08400
H -0.63500 6.74400 -1.40500
H 0.66500 6.97000 -2.70400
H 1.04800 6.46600 -1.03600
H 0.60800 0.50100 -4.89100
H -0.69200 -2.15600 -4.54700
H -1.26700 0.74000 -6.12900
H -2.20400 0.71400 -4.59600
H -1.96700 -0.72000 -5.45300
H 1.35600 -1.75900 -5.96700
H 1.45200 -3.15700 -4.90200
H 2.71400 -0.52200 -4.79800
H 3.48700 -2.12100 -4.52900
H 2.49500 -1.30300 -3.24000
H 0.86700 -6.33300 -0.08400
H 0.40400 -5.64200 -1.68000
H -0.89100 -5.99900 -0.46300
H -1.28300 -3.58100 4.02800
H 0.69800 -4.47800 7.75500
H 0.83300 -2.61900 7.68000
H 2.00000 -3.75400 6.97600
Mg 8.92435 0.80740 0.68100
C 7.03886 -1.99652 -0.52813
C 7.17788 2.74071 -1.52054
C 10.87111 3.20809 1.39812
C 11.25466 -1.46994 1.91755
N 7.33839 0.31974 -0.78159
C 6.65882 -0.76887 -1.10939
C 5.45512 -0.51496 -2.05607
C 5.95963 0.85537 -2.72431
C 6.85572 1.36209 -1.59607
C 6.82018 0.64195 -3.95851
C 4.11105 -0.31115 -1.27251
C 2.84868 -0.36655 -2.13570
H 1.64025 -0.95478 -1.56462
N 8.70734 2.76148 0.41072
C 7.94063 3.37469 -0.51524
C 8.14216 4.81780 -0.31280
C 9.21670 5.00386 0.69986
C 9.66424 3.63531 0.86380
C 7.29821 5.85981 -0.98761
C 9.76113 6.21490 1.39496
O 10.85575 6.17410 2.06052
C 9.02442 7.47156 1.19608
N 10.89290 0.87589 1.34618
C 11.48541 2.04839 1.63273
C 12.79631 1.83580 2.35157
C 12.84494 0.27671 2.70435
C 11.53741 -0.17853 2.01986
C 14.05301 2.22013 1.57094
C 13.06968 -0.10108 4.19413
C 11.86877 0.30681 5.01683
N 9.04996 -1.34113 0.87099
C 10.12653 -2.08958 1.39529
C 9.79618 -3.51726 1.20815
C 8.55089 -3.49993 0.56206
C 8.14388 -2.15617 0.34261
C 10.62361 -4.61711 1.57123
C 7.49306 -4.31280 0.00625
O 7.24598 -5.51779 -0.01998
C 6.52584 -3.37549 -0.83775
C 5.10934 -3.69967 -0.44920
O 4.70094 -3.46765 0.70231
O 4.41302 -4.02520 -1.55353
C 2.99905 -4.34433 -1.22087
H 6.85178 3.39480 -2.32968
H 11.53137 3.99835 1.76285
H 11.88427 -2.24254 2.36405
H 5.31060 -1.26984 -2.81963
H 5.13299 1.54091 -2.89182
H 7.04890 -0.40182 -4.11461
H 7.72722 1.20632 -3.78587
H 6.34463 1.09578 -4.83271
H 4.05429 0.72780 -0.92309
H 4.02917 -1.01477 -0.46700
H 3.04713 -0.78530 -3.12979
H 2.52035 0.65617 -2.33636
H 6.70041 5.42889 -1.80022
H 7.98396 6.54970 -1.49126
H 6.68294 6.42420 -0.28362
H 8.98527 7.70307 0.13432
H 9.51386 8.20268 1.84245
H 7.98935 7.32609 1.52483
H 12.82943 2.40559 3.27208
H 13.66734 -0.23379 2.18196
H 14.68201 2.96416 2.09520
H 13.75168 2.59287 0.60099
H 14.70478 1.38909 1.30678
H 13.92396 0.44697 4.59909
H 13.26285 -1.15758 4.34741
H 12.05620 1.36563 5.21893
H 11.82276 -0.26893 5.93903
H 10.94714 0.24194 4.42687
H 9.97911 -5.35165 2.03551
H 11.42347 -4.30873 2.24123
H 11.00166 -4.90969 0.58800
H 6.71641 -3.57369 -1.89320
H 2.79647 -5.34540 -1.61393
H 2.39977 -3.51068 -1.63276
H 2.74702 -4.47287 -0.17473

