%nproc=24
%mem=175gb
#p cam-b3lyp/Def2SVP td=(nstates=5)

TDDFT excited states in gaussian

0 1
Mg 0.00000 0.00000 0.00000
C -0.21700 -2.21800 2.80100
C -1.25500 2.44200 2.02600
C -0.24500 1.85000 -2.56400
C 0.14600 -2.82400 -2.03700
N -0.61700 -0.00900 2.12600
C -0.59400 -0.90800 3.10500
C -0.93600 -0.30900 4.50200
C -1.77300 0.96400 4.03200
C -1.15500 1.16800 2.66000
C -3.26300 0.68500 3.86300
C 0.34500 0.11000 5.29900
C 0.12400 0.39700 6.78700
H 1.16800 0.03300 7.73300
N -0.18500 1.96100 -0.15200
C -0.70300 2.80000 0.77700
C -0.62000 4.15600 0.19300
C -0.18700 4.01500 -1.22500
C -0.21400 2.58300 -1.38000
C -0.88700 5.40600 0.97400
C 0.18100 5.01300 -2.27700
O 0.30300 4.69000 -3.50800
C 0.31000 6.41400 -1.83700
N -0.26500 -0.41300 -2.02900
C -0.27900 0.56900 -2.93700
C -0.19600 0.02400 -4.33200
C 0.12400 -1.53300 -4.18000
C 0.08600 -1.63200 -2.63500
C -1.45100 0.20500 -5.19700
C 1.37300 -2.07000 -4.92300
C 2.62600 -1.49000 -4.30600
N 0.15000 -2.14400 0.30300
C 0.17300 -3.13600 -0.68800
C 0.17300 -4.43800 0.00400
C 0.13300 -4.11100 1.35800
C 0.08300 -2.69500 1.50200
C 0.14900 -5.71500 -0.62300
C 0.09600 -4.62900 2.71600
O 0.20800 -5.74700 3.22100
C -0.25500 -3.42800 3.70100
C 0.71700 -3.48200 4.84800
O 1.93100 -3.25500 4.66900
O 0.03800 -3.55600 6.00300
C 0.94300 -3.58300 7.18300
H -1.85900 3.22000 2.49700
H -0.21800 2.45300 -3.47400
H 0.27600 -3.74700 -2.60500
H -1.55400 -0.94900 5.13200
H -1.58500 1.83100 4.66500
H -3.48400 -0.37700 3.96900
H -3.51100 1.02700 2.85800
H -3.85200 1.30100 4.54300
H 0.66900 1.09600 4.96600
H 1.13000 -0.63900 5.18900
H -0.84400 0.02600 7.12500
H 0.06200 1.47700 6.92100
H -1.34400 5.18600 1.93800
H -1.65100 5.96300 0.43200
H 0.00700 6.02000 1.08400
H -0.63500 6.74400 -1.40500
H 0.66500 6.97000 -2.70400
H 1.04800 6.46600 -1.03600
H 0.60800 0.50100 -4.89100
H -0.69200 -2.15600 -4.54700
H -1.26700 0.74000 -6.12900
H -2.20400 0.71400 -4.59600
H -1.96700 -0.72000 -5.45300
H 1.35600 -1.75900 -5.96700
H 1.45200 -3.15700 -4.90200
H 2.71400 -0.52200 -4.79800
H 3.48700 -2.12100 -4.52900
H 2.49500 -1.30300 -3.24000
H 0.86700 -6.33300 -0.08400
H 0.40400 -5.64200 -1.68000
H -0.89100 -5.99900 -0.46300
H -1.28300 -3.58100 4.02800
H 0.69800 -4.47800 7.75500
H 0.83300 -2.61900 7.68000
H 2.00000 -3.75400 6.97600
Mg 7.88953 0.71332 0.60647
C 7.74825 -2.00065 2.95028
C 6.63919 2.71111 3.07225
C 7.57740 3.01584 -1.55417
C 8.02785 -1.66974 -1.93274
N 7.30938 0.29356 2.69919
C 7.35758 -0.76130 3.49876
C 7.04216 -0.45492 4.98745
C 6.17286 0.87922 4.77943
C 6.76255 1.35065 3.45176
C 4.69197 0.60672 4.57437
C 8.33725 -0.17159 5.82679
C 8.13314 -0.17003 7.34339
H 9.20442 -0.68715 8.19040
N 7.67918 2.67295 0.83923
C 7.17445 3.31526 1.91345
C 7.21631 4.74792 1.58192
C 7.63365 4.88843 0.16037
C 7.62598 3.50011 -0.25507
C 6.95608 5.82534 2.59428
C 7.97001 6.07683 -0.68861
O 8.07590 5.98583 -1.96271
C 8.07974 7.36830 0.00533
N 7.60005 0.68530 -1.45211
C 7.55113 1.82805 -2.15897
C 7.61358 1.55470 -3.64281
C 7.95970 -0.00069 -3.77894
C 7.94901 -0.39398 -2.28542
C 6.34036 1.86330 -4.43025
C 9.20295 -0.37295 -4.63243
C 10.46200 0.10705 -3.94704
N 8.07565 -1.43656 0.49953
C 8.08732 -2.23483 -0.66525
C 8.11629 -3.64510 -0.22627
C 8.09606 -3.56936 1.17457
C 8.03683 -2.20856 1.57979
C 8.10734 -4.78292 -1.08150
C 8.10061 -4.33149 2.40251
O 8.22853 -5.52198 2.68556
C 7.74794 -3.35403 3.60525
C 8.74036 -3.59856 4.70881
O 9.94427 -3.33230 4.54662
O 8.07645 -3.89934 5.83979
C 9.01763 -4.13960 6.96597
H 6.04015 3.37231 3.69903
H 7.58092 3.77422 -2.34051
H 8.17096 -2.46940 -2.66263
H 6.45015 -1.20971 5.49101
H 6.37019 1.60550 5.56360
H 4.48535 -0.44937 4.48424
H 4.42099 1.12433 3.66350
H 4.10849 1.07510 5.37218
H 8.63976 0.87279 5.67684
H 9.11742 -0.86075 5.56788
H 7.17022 -0.60989 7.63016
H 8.06632 0.86626 7.68347
H 6.51226 5.41741 3.51081
H 6.17568 6.47232 2.17925
H 7.84152 6.42934 2.80365
H 7.14076 7.58954 0.50717
H 8.41339 8.07982 -0.75249
H 8.84189 7.28140 0.78775
H 8.40198 2.13232 -4.10960
H 7.14194 -0.55977 -4.25699
H 6.50198 2.57897 -5.25836
H 5.59606 2.24044 -3.74154
H 5.84056 0.99607 -4.85842
H 9.16372 0.13379 -5.59981
H 9.28910 -1.43637 -4.82918
H 10.52287 1.15672 -4.24965
H 11.32605 -0.45499 -4.29573
H 10.34977 0.08426 -2.85684
H 8.83561 -5.47711 -0.68373
H 8.33739 -4.50964 -2.10920
H 7.06943 -5.10616 -0.96521
H 6.72625 -3.57393 3.91732
H 8.79098 -5.13297 7.36539
H 8.88979 -3.28018 7.65068
H 10.06956 -4.24282 6.72670

