%nproc=24
%mem=175gb
#p cam-b3lyp/Def2SVP td=(nstates=5)

TDDFT excited states in gaussian

0 1
Mg 0.00000 0.00000 0.00000
C -0.21700 -2.21800 2.80100
C -1.25500 2.44200 2.02600
C -0.24500 1.85000 -2.56400
C 0.14600 -2.82400 -2.03700
N -0.61700 -0.00900 2.12600
C -0.59400 -0.90800 3.10500
C -0.93600 -0.30900 4.50200
C -1.77300 0.96400 4.03200
C -1.15500 1.16800 2.66000
C -3.26300 0.68500 3.86300
C 0.34500 0.11000 5.29900
C 0.12400 0.39700 6.78700
H 1.16800 0.03300 7.73300
N -0.18500 1.96100 -0.15200
C -0.70300 2.80000 0.77700
C -0.62000 4.15600 0.19300
C -0.18700 4.01500 -1.22500
C -0.21400 2.58300 -1.38000
C -0.88700 5.40600 0.97400
C 0.18100 5.01300 -2.27700
O 0.30300 4.69000 -3.50800
C 0.31000 6.41400 -1.83700
N -0.26500 -0.41300 -2.02900
C -0.27900 0.56900 -2.93700
C -0.19600 0.02400 -4.33200
C 0.12400 -1.53300 -4.18000
C 0.08600 -1.63200 -2.63500
C -1.45100 0.20500 -5.19700
C 1.37300 -2.07000 -4.92300
C 2.62600 -1.49000 -4.30600
N 0.15000 -2.14400 0.30300
C 0.17300 -3.13600 -0.68800
C 0.17300 -4.43800 0.00400
C 0.13300 -4.11100 1.35800
C 0.08300 -2.69500 1.50200
C 0.14900 -5.71500 -0.62300
C 0.09600 -4.62900 2.71600
O 0.20800 -5.74700 3.22100
C -0.25500 -3.42800 3.70100
C 0.71700 -3.48200 4.84800
O 1.93100 -3.25500 4.66900
O 0.03800 -3.55600 6.00300
C 0.94300 -3.58300 7.18300
H -1.85900 3.22000 2.49700
H -0.21800 2.45300 -3.47400
H 0.27600 -3.74700 -2.60500
H -1.55400 -0.94900 5.13200
H -1.58500 1.83100 4.66500
H -3.48400 -0.37700 3.96900
H -3.51100 1.02700 2.85800
H -3.85200 1.30100 4.54300
H 0.66900 1.09600 4.96600
H 1.13000 -0.63900 5.18900
H -0.84400 0.02600 7.12500
H 0.06200 1.47700 6.92100
H -1.34400 5.18600 1.93800
H -1.65100 5.96300 0.43200
H 0.00700 6.02000 1.08400
H -0.63500 6.74400 -1.40500
H 0.66500 6.97000 -2.70400
H 1.04800 6.46600 -1.03600
H 0.60800 0.50100 -4.89100
H -0.69200 -2.15600 -4.54700
H -1.26700 0.74000 -6.12900
H -2.20400 0.71400 -4.59600
H -1.96700 -0.72000 -5.45300
H 1.35600 -1.75900 -5.96700
H 1.45200 -3.15700 -4.90200
H 2.71400 -0.52200 -4.79800
H 3.48700 -2.12100 -4.52900
H 2.49500 -1.30300 -3.24000
H 0.86700 -6.33300 -0.08400
H 0.40400 -5.64200 -1.68000
H -0.89100 -5.99900 -0.46300
H -1.28300 -3.58100 4.02800
H 0.69800 -4.47800 7.75500
H 0.83300 -2.61900 7.68000
H 2.00000 -3.75400 6.97600
Mg 15.77280 1.42114 1.20584
C 15.73353 -1.79372 2.80027
C 14.55213 2.71367 4.11684
C 15.37003 4.18210 -0.30489
C 15.88631 -0.25034 -1.85014
N 15.25168 0.48056 3.13871
C 15.33672 -0.73896 3.64849
C 15.05351 -0.82019 5.17255
C 14.15794 0.50442 5.32164
C 14.70678 1.30458 4.14215
C 12.67699 0.25941 5.08479
C 16.36433 -0.72682 6.02990
C 16.19798 -1.10770 7.50266
H 17.29817 -1.79612 8.17209
N 15.53677 3.25587 1.92459
C 15.04862 3.59906 3.13505
C 15.05916 5.06970 3.17089
C 15.43872 5.56910 1.82136
C 15.44307 4.32828 1.07273
C 14.80685 5.85490 4.42517
C 15.73469 6.93862 1.28936
O 15.81033 7.17033 0.03102
C 15.84083 8.01848 2.28138
N 15.43273 1.90072 -0.78833
C 15.34786 3.18222 -1.18641
C 15.37780 3.28871 -2.69245
C 15.74543 1.82424 -3.21947
C 15.77819 1.07103 -1.87151
C 14.08060 3.75598 -3.35222
C 16.97291 1.70360 -4.16362
C 18.24072 2.02497 -3.40549
N 15.99079 -0.62968 0.56187
C 15.98636 -1.11204 -0.76530
C 16.04893 -2.58624 -0.69295
C 16.06231 -2.86245 0.68256
C 15.99127 -1.64719 1.41577
C 16.03705 -3.47494 -1.80479
C 16.10965 -3.90626 1.68102
O 16.26372 -5.12664 1.65529
C 15.77130 -3.26729 3.09652
C 16.79465 -3.75743 4.08396
O 17.98971 -3.43298 3.96927
O 16.16399 -4.34497 5.11713
C 17.13662 -4.83773 6.12856
H 13.95828 3.18460 4.90071
H 15.34179 5.11240 -0.87692
H 16.02409 -0.83956 -2.75926
H 14.48642 -1.68938 5.48351
H 14.36298 1.01649 6.25818
H 12.48522 -0.74514 4.73804
H 12.37514 0.98166 4.33760
H 12.10605 0.50137 5.98580
H 16.64617 0.32832 6.13938
H 17.14882 -1.31254 5.59156
H 15.24969 -1.62603 7.68979
H 16.12296 -0.19057 8.09193
H 14.39258 5.22186 5.21956
H 14.00606 6.56774 4.20053
H 15.68739 6.40682 4.76090
H 14.91118 8.08715 2.84129
H 16.14404 8.90350 1.71865
H 16.62350 7.75597 3.00189
H 16.14495 3.98147 -3.01598
H 14.92514 1.38425 -3.80545
H 14.21004 4.65879 -3.97852
H 13.34767 3.93328 -2.57639
H 13.58434 3.01214 -3.97322
H 16.90149 2.43445 -4.97289
H 17.07126 0.72491 -4.62130
H 18.27713 3.11801 -3.43764
H 19.10477 1.58653 -3.90071
H 18.15600 1.72878 -2.35348
H 16.78607 -4.23032 -1.60760
H 16.23706 -2.94923 -2.73613
H 15.00769 -3.83950 -1.75209
H 14.76136 -3.58024 3.36423
H 16.93599 -5.90399 6.27181
H 17.01201 -4.17906 7.00855
H 18.18380 -4.85511 5.85006

