%nproc=24
%mem=175gb
#p cam-b3lyp/Def2SVP td=(nstates=5)

TDDFT excited states in gaussian

0 1
Mg 15.77261 1.42710 1.20126
C 15.32789 1.07148 4.74454
C 14.57891 4.60630 1.52123
C 15.72660 1.62239 -1.96531
C 15.83199 -2.05163 0.99971
N 15.07670 2.57648 2.95822
C 15.01115 2.35885 4.26309
C 14.65935 3.61298 5.10745
C 13.90404 4.46246 3.97309
C 14.58205 3.87609 2.73650
C 12.41629 4.16450 3.88859
C 15.93682 4.35980 5.62930
C 15.67143 5.40878 6.71141
H 16.66431 5.58595 7.76747
N 15.70360 3.01542 0.01338
C 15.20593 4.23381 0.31192
C 15.37096 5.04486 -0.90427
C 15.85577 4.15848 -1.99698
C 15.75882 2.86535 -1.35005
C 15.15272 6.52986 -0.92784
C 16.31668 4.42850 -3.39728
O 16.46744 3.48395 -4.25047
C 16.49646 5.83989 -3.76761
N 15.56648 0.00007 -0.29655
C 15.63426 0.34522 -1.59432
C 15.73637 -0.87463 -2.47858
C 15.96763 -2.10683 -1.48572
C 15.86562 -1.36569 -0.13454
C 14.52388 -1.15669 -3.36554
C 17.21266 -2.99782 -1.74789
C 18.47562 -2.21303 -1.47509
N 15.79774 -0.21220 2.60842
C 15.79599 -1.59246 2.31016
C 15.69883 -2.31537 3.59483
C 15.62704 -1.29716 4.55744
C 15.65565 -0.02920 3.91639
C 15.63784 -3.72883 3.75146
C 15.52286 -1.00671 5.96934
O 15.54751 -1.67994 6.99885
C 15.19707 0.53911 6.14457
C 16.12176 1.09265 7.19388
O 17.34817 1.14134 6.99347
O 15.39096 1.66979 8.16507
C 16.26401 2.24338 9.22366
H 14.00708 5.53351 1.47456
H 15.82043 1.63246 -3.05369
H 15.94324 -3.13766 1.02866
H 13.99111 3.42740 5.93979
H 14.12411 5.52316 4.06171
H 12.13326 3.34159 4.52800
H 12.22332 3.92177 2.85182
H 11.83818 5.06884 4.09903
H 16.32433 5.00660 4.83165
H 16.67187 3.66012 5.97682
H 14.66669 5.31304 7.14070
H 15.67029 6.39661 6.24428
H 14.64176 6.87579 -0.02083
H 14.44184 6.73581 -1.73537
H 16.07250 7.08784 -1.11584
H 15.55741 6.37121 -3.63220
H 16.91442 5.82645 -4.77608
H 17.21700 6.29351 -3.07792
H 16.58517 -0.79780 -3.14697
H 15.12974 -2.81870 -1.51772
H 14.77366 -1.21068 -4.44200
H 13.78304 -0.38913 -3.18512
H 13.97711 -2.06672 -3.12455
H 17.25205 -3.29367 -2.79911
H 17.22511 -3.90738 -1.15667
H 18.62905 -1.66065 -2.40698
H 19.30764 -2.88444 -1.27266
H 18.31736 -1.47729 -0.67803
H 16.29387 -3.97947 4.57444
H 15.93008 -4.24301 2.83824
H 14.57432 -3.85499 3.97121
H 14.14962 0.62206 6.43702
H 15.94575 1.80297 10.17362
H 16.17440 3.34132 9.12235
H 17.31386 1.97507 9.20734

