%nproc=24
%mem=175gb
#p cam-b3lyp/Def2SVP td=(nstates=5)

TDDFT excited states in gaussian

0 1
Mg 0.00000 0.00000 0.00000
C -0.21700 -2.21800 2.80100
C -1.25500 2.44200 2.02600
C -0.24500 1.85000 -2.56400
C 0.14600 -2.82400 -2.03700
N -0.61700 -0.00900 2.12600
C -0.59400 -0.90800 3.10500
C -0.93600 -0.30900 4.50200
C -1.77300 0.96400 4.03200
C -1.15500 1.16800 2.66000
C -3.26300 0.68500 3.86300
C 0.34500 0.11000 5.29900
C 0.12400 0.39700 6.78700
H 1.16800 0.03300 7.73300
N -0.18500 1.96100 -0.15200
C -0.70300 2.80000 0.77700
C -0.62000 4.15600 0.19300
C -0.18700 4.01500 -1.22500
C -0.21400 2.58300 -1.38000
C -0.88700 5.40600 0.97400
C 0.18100 5.01300 -2.27700
O 0.30300 4.69000 -3.50800
C 0.31000 6.41400 -1.83700
N -0.26500 -0.41300 -2.02900
C -0.27900 0.56900 -2.93700
C -0.19600 0.02400 -4.33200
C 0.12400 -1.53300 -4.18000
C 0.08600 -1.63200 -2.63500
C -1.45100 0.20500 -5.19700
C 1.37300 -2.07000 -4.92300
C 2.62600 -1.49000 -4.30600
N 0.15000 -2.14400 0.30300
C 0.17300 -3.13600 -0.68800
C 0.17300 -4.43800 0.00400
C 0.13300 -4.11100 1.35800
C 0.08300 -2.69500 1.50200
C 0.14900 -5.71500 -0.62300
C 0.09600 -4.62900 2.71600
O 0.20800 -5.74700 3.22100
C -0.25500 -3.42800 3.70100
C 0.71700 -3.48200 4.84800
O 1.93100 -3.25500 4.66900
O 0.03800 -3.55600 6.00300
C 0.94300 -3.58300 7.18300
H -1.85900 3.22000 2.49700
H -0.21800 2.45300 -3.47400
H 0.27600 -3.74700 -2.60500
H -1.55400 -0.94900 5.13200
H -1.58500 1.83100 4.66500
H -3.48400 -0.37700 3.96900
H -3.51100 1.02700 2.85800
H -3.85200 1.30100 4.54300
H 0.66900 1.09600 4.96600
H 1.13000 -0.63900 5.18900
H -0.84400 0.02600 7.12500
H 0.06200 1.47700 6.92100
H -1.34400 5.18600 1.93800
H -1.65100 5.96300 0.43200
H 0.00700 6.02000 1.08400
H -0.63500 6.74400 -1.40500
H 0.66500 6.97000 -2.70400
H 1.04800 6.46600 -1.03600
H 0.60800 0.50100 -4.89100
H -0.69200 -2.15600 -4.54700
H -1.26700 0.74000 -6.12900
H -2.20400 0.71400 -4.59600
H -1.96700 -0.72000 -5.45300
H 1.35600 -1.75900 -5.96700
H 1.45200 -3.15700 -4.90200
H 2.71400 -0.52200 -4.79800
H 3.48700 -2.12100 -4.52900
H 2.49500 -1.30300 -3.24000
H 0.86700 -6.33300 -0.08400
H 0.40400 -5.64200 -1.68000
H -0.89100 -5.99900 -0.46300
H -1.28300 -3.58100 4.02800
H 0.69800 -4.47800 7.75500
H 0.83300 -2.61900 7.68000
H 2.00000 -3.75400 6.97600
Mg 7.88956 0.71286 0.60665
C 7.77442 -2.14399 2.77556
C 6.64440 2.54517 3.20026
C 7.55425 3.14530 -1.40289
C 8.02407 -1.50484 -2.07838
N 7.32354 0.15927 2.67194
C 7.38126 -0.94359 3.40318
C 7.07310 -0.73314 4.90993
C 6.19647 0.60712 4.79118
C 6.77624 1.16414 3.49262
C 4.71568 0.34073 4.57754
C 8.37173 -0.49681 5.75829
C 8.17645 -0.59177 7.27309
H 9.25501 -1.15588 8.07991
N 7.67154 2.65288 0.96356
C 7.17012 3.22375 2.07888
C 7.20345 4.67463 1.83805
C 7.61186 4.90646 0.42590
C 7.60816 3.54704 -0.07614
C 6.94415 5.68486 2.91770
C 7.93779 6.14762 -0.34837
O 8.03668 6.13756 -1.62624
C 8.04561 7.39335 0.42494
N 7.58823 0.81310 -1.44798
C 7.52994 1.99784 -2.08116
C 7.58501 1.81880 -3.57959
C 7.93749 0.27680 -3.81536
C 7.93730 -0.20981 -2.34954
C 6.30581 2.17004 -4.33899
C 9.17744 -0.03480 -4.69745
C 10.43824 0.40733 -3.99014
N 8.08495 -1.42506 0.36345
C 8.09352 -2.14833 -0.84936
C 8.13154 -3.58329 -0.50026
C 8.11911 -3.59602 0.90265
C 8.05597 -2.26374 1.39312
C 8.12285 -4.66502 -1.42542
C 8.13432 -4.43393 2.08009
O 8.26937 -5.63923 2.28687
C 7.78416 -3.53592 3.34396
C 8.78410 -3.84452 4.42442
O 9.98581 -3.56260 4.27269
O 8.12819 -4.21923 5.53786
C 9.07701 -4.52525 6.64145
H 6.04598 3.16261 3.87074
H 7.54970 3.95170 -2.13989
H 8.16661 -2.25623 -2.85798
H 6.48751 -1.52107 5.36820
H 6.39501 1.28355 5.61845
H 4.51340 -0.70860 4.42220
H 4.43701 0.91332 3.70260
H 4.13470 0.75504 5.40648
H 8.66855 0.55644 5.67278
H 9.15355 -1.16441 5.45218
H 7.21725 -1.05359 7.53689
H 8.10684 0.42071 7.67814
H 6.50757 5.21782 3.80914
H 6.15838 6.35281 2.54856
H 7.82801 6.27886 3.15981
H 7.10856 7.57788 0.94489
H 8.37156 8.15283 -0.28838
H 8.81270 7.26114 1.19611
H 8.36800 2.42857 -4.01341
H 7.11954 -0.25512 -4.32316
H 6.45931 2.93724 -5.12124
H 5.56380 2.49936 -3.62379
H 5.80753 1.32903 -4.81818
H 9.13025 0.53165 -5.63076
H 9.26735 -1.08327 -4.96128
H 10.49251 1.47426 -4.22635
H 11.30282 -0.12734 -4.37831
H 10.33246 0.31537 -2.90294
H 8.85661 -5.37926 -1.07620
H 8.34565 -4.32642 -2.43511
H 7.08713 -5.00008 -1.32400
H 6.76534 -3.78010 3.64718
H 8.85726 -5.54291 6.97873
H 8.94919 -3.71131 7.37963
H 10.12798 -4.60797 6.39035

