%nproc=24
%mem=175gb
#p cam-b3lyp/Def2SVP td=(nstates=5)

TDDFT excited states in gaussian

0 1
Mg 0.00000 0.00000 0.00000
C -0.21700 -2.21800 2.80100
C -1.25500 2.44200 2.02600
C -0.24500 1.85000 -2.56400
C 0.14600 -2.82400 -2.03700
N -0.61700 -0.00900 2.12600
C -0.59400 -0.90800 3.10500
C -0.93600 -0.30900 4.50200
C -1.77300 0.96400 4.03200
C -1.15500 1.16800 2.66000
C -3.26300 0.68500 3.86300
C 0.34500 0.11000 5.29900
C 0.12400 0.39700 6.78700
H 1.16800 0.03300 7.73300
N -0.18500 1.96100 -0.15200
C -0.70300 2.80000 0.77700
C -0.62000 4.15600 0.19300
C -0.18700 4.01500 -1.22500
C -0.21400 2.58300 -1.38000
C -0.88700 5.40600 0.97400
C 0.18100 5.01300 -2.27700
O 0.30300 4.69000 -3.50800
C 0.31000 6.41400 -1.83700
N -0.26500 -0.41300 -2.02900
C -0.27900 0.56900 -2.93700
C -0.19600 0.02400 -4.33200
C 0.12400 -1.53300 -4.18000
C 0.08600 -1.63200 -2.63500
C -1.45100 0.20500 -5.19700
C 1.37300 -2.07000 -4.92300
C 2.62600 -1.49000 -4.30600
N 0.15000 -2.14400 0.30300
C 0.17300 -3.13600 -0.68800
C 0.17300 -4.43800 0.00400
C 0.13300 -4.11100 1.35800
C 0.08300 -2.69500 1.50200
C 0.14900 -5.71500 -0.62300
C 0.09600 -4.62900 2.71600
O 0.20800 -5.74700 3.22100
C -0.25500 -3.42800 3.70100
C 0.71700 -3.48200 4.84800
O 1.93100 -3.25500 4.66900
O 0.03800 -3.55600 6.00300
C 0.94300 -3.58300 7.18300
H -1.85900 3.22000 2.49700
H -0.21800 2.45300 -3.47400
H 0.27600 -3.74700 -2.60500
H -1.55400 -0.94900 5.13200
H -1.58500 1.83100 4.66500
H -3.48400 -0.37700 3.96900
H -3.51100 1.02700 2.85800
H -3.85200 1.30100 4.54300
H 0.66900 1.09600 4.96600
H 1.13000 -0.63900 5.18900
H -0.84400 0.02600 7.12500
H 0.06200 1.47700 6.92100
H -1.34400 5.18600 1.93800
H -1.65100 5.96300 0.43200
H 0.00700 6.02000 1.08400
H -0.63500 6.74400 -1.40500
H 0.66500 6.97000 -2.70400
H 1.04800 6.46600 -1.03600
H 0.60800 0.50100 -4.89100
H -0.69200 -2.15600 -4.54700
H -1.26700 0.74000 -6.12900
H -2.20400 0.71400 -4.59600
H -1.96700 -0.72000 -5.45300
H 1.35600 -1.75900 -5.96700
H 1.45200 -3.15700 -4.90200
H 2.71400 -0.52200 -4.79800
H 3.48700 -2.12100 -4.52900
H 2.49500 -1.30300 -3.24000
H 0.86700 -6.33300 -0.08400
H 0.40400 -5.64200 -1.68000
H -0.89100 -5.99900 -0.46300
H -1.28300 -3.58100 4.02800
H 0.69800 -4.47800 7.75500
H 0.83300 -2.61900 7.68000
H 2.00000 -3.75400 6.97600
Mg 13.14614 1.17653 1.00196
C 13.35826 -1.30589 -1.58100
C 12.32667 -1.34340 3.14975
C 12.51214 3.38320 3.19195
C 12.85272 3.56972 -1.51444
N 12.90591 -1.00198 0.70418
C 13.07223 -1.84053 -0.30751
C 13.00293 -3.34129 0.08296
C 12.12383 -3.20166 1.41958
C 12.49686 -1.77280 1.80932
C 10.62678 -3.25143 1.16323
C 14.41860 -3.94578 0.38708
C 14.46084 -5.47308 0.47270
H 15.64947 -6.16509 -0.01795
N 12.99398 1.02165 2.97463
C 12.67433 -0.08235 3.68193
C 12.67559 0.33017 5.09402
C 12.86039 1.80572 5.15148
C 12.77327 2.13732 3.74345
C 12.59132 -0.64975 6.22808
C 13.06690 2.76185 6.28698
O 12.96587 4.02950 6.12668
C 13.29860 2.16675 7.61123
N 12.52942 3.15759 0.87007
C 12.37810 3.90952 1.97444
C 12.19882 5.36686 1.62175
C 12.50422 5.47053 0.05537
C 12.73000 3.97512 -0.25795
C 10.81852 5.95636 1.91098
C 13.59070 6.49000 -0.38386
C 14.94789 6.04234 0.10911
N 13.29283 1.19303 -1.15356
C 13.10985 2.29883 -2.01253
C 13.19598 1.79296 -3.39784
C 13.40178 0.41326 -3.24761
C 13.42097 0.07952 -1.86640
C 13.03926 2.57163 -4.57904
C 13.59654 -0.83832 -3.94354
O 13.75731 -1.16254 -5.11946
C 13.45072 -2.02617 -2.89754
C 14.60525 -2.96860 -3.10100
O 15.76987 -2.60152 -2.86536
O 14.12894 -4.20606 -3.32945
C 15.23658 -5.17875 -3.52653
H 11.84223 -2.02045 3.85389
H 12.39626 4.20062 3.90740
H 12.86933 4.26784 -2.35410
H 12.49258 -3.97394 -0.63333
H 12.45127 -3.90288 2.18275
H 10.39864 -3.25394 0.10772
H 10.21775 -2.36846 1.63662
H 10.18340 -4.10520 1.68364
H 14.70270 -3.69197 1.41646
H 15.14065 -3.60387 -0.32872
H 13.55248 -5.93399 0.06601
H 14.45907 -5.76174 1.52659
H 12.29679 -1.64656 5.87733
H 11.76038 -0.32980 6.86606
H 13.50443 -0.68116 6.82634
H 12.45453 1.53418 7.87557
H 13.51270 3.00628 8.27548
H 14.17573 1.51270 7.55226
H 12.90726 5.98489 2.15957
H 11.61516 5.78005 -0.51349
H 10.85158 6.83788 2.57874
H 10.19804 5.17936 2.33739
H 10.24845 6.25056 1.03139
H 13.40123 7.46514 0.07151
H 13.63433 6.63900 -1.45759
H 14.96901 6.40825 1.14001
H 15.73947 6.49316 -0.48603
H 15.01207 4.94864 0.14616
H 13.81555 2.25775 -5.26414
H 13.10371 3.63639 -4.36480
H 12.03058 2.27319 -4.87698
H 12.49046 -2.50927 -3.08221
H 15.06790 -5.66348 -4.49311
H 15.22833 -5.82659 -2.62988
H 16.23540 -4.78039 -3.66115

