%nproc=24
%mem=175gb
#p cam-b3lyp/Def2SVP td=(nstates=5)

TDDFT excited states in gaussian

0 1
Mg 0.00000 0.00000 0.00000
C -0.21700 -2.21800 2.80100
C -1.25500 2.44200 2.02600
C -0.24500 1.85000 -2.56400
C 0.14600 -2.82400 -2.03700
N -0.61700 -0.00900 2.12600
C -0.59400 -0.90800 3.10500
C -0.93600 -0.30900 4.50200
C -1.77300 0.96400 4.03200
C -1.15500 1.16800 2.66000
C -3.26300 0.68500 3.86300
C 0.34500 0.11000 5.29900
C 0.12400 0.39700 6.78700
H 1.16800 0.03300 7.73300
N -0.18500 1.96100 -0.15200
C -0.70300 2.80000 0.77700
C -0.62000 4.15600 0.19300
C -0.18700 4.01500 -1.22500
C -0.21400 2.58300 -1.38000
C -0.88700 5.40600 0.97400
C 0.18100 5.01300 -2.27700
O 0.30300 4.69000 -3.50800
C 0.31000 6.41400 -1.83700
N -0.26500 -0.41300 -2.02900
C -0.27900 0.56900 -2.93700
C -0.19600 0.02400 -4.33200
C 0.12400 -1.53300 -4.18000
C 0.08600 -1.63200 -2.63500
C -1.45100 0.20500 -5.19700
C 1.37300 -2.07000 -4.92300
C 2.62600 -1.49000 -4.30600
N 0.15000 -2.14400 0.30300
C 0.17300 -3.13600 -0.68800
C 0.17300 -4.43800 0.00400
C 0.13300 -4.11100 1.35800
C 0.08300 -2.69500 1.50200
C 0.14900 -5.71500 -0.62300
C 0.09600 -4.62900 2.71600
O 0.20800 -5.74700 3.22100
C -0.25500 -3.42800 3.70100
C 0.71700 -3.48200 4.84800
O 1.93100 -3.25500 4.66900
O 0.03800 -3.55600 6.00300
C 0.94300 -3.58300 7.18300
H -1.85900 3.22000 2.49700
H -0.21800 2.45300 -3.47400
H 0.27600 -3.74700 -2.60500
H -1.55400 -0.94900 5.13200
H -1.58500 1.83100 4.66500
H -3.48400 -0.37700 3.96900
H -3.51100 1.02700 2.85800
H -3.85200 1.30100 4.54300
H 0.66900 1.09600 4.96600
H 1.13000 -0.63900 5.18900
H -0.84400 0.02600 7.12500
H 0.06200 1.47700 6.92100
H -1.34400 5.18600 1.93800
H -1.65100 5.96300 0.43200
H 0.00700 6.02000 1.08400
H -0.63500 6.74400 -1.40500
H 0.66500 6.97000 -2.70400
H 1.04800 6.46600 -1.03600
H 0.60800 0.50100 -4.89100
H -0.69200 -2.15600 -4.54700
H -1.26700 0.74000 -6.12900
H -2.20400 0.71400 -4.59600
H -1.96700 -0.72000 -5.45300
H 1.35600 -1.75900 -5.96700
H 1.45200 -3.15700 -4.90200
H 2.71400 -0.52200 -4.79800
H 3.48700 -2.12100 -4.52900
H 2.49500 -1.30300 -3.24000
H 0.86700 -6.33300 -0.08400
H 0.40400 -5.64200 -1.68000
H -0.89100 -5.99900 -0.46300
H -1.28300 -3.58100 4.02800
H 0.69800 -4.47800 7.75500
H 0.83300 -2.61900 7.68000
H 2.00000 -3.75400 6.97600
Mg 10.51803 0.94206 0.80500
C 10.70846 -2.41057 -0.46097
C 9.52931 -0.39753 3.78201
C 9.90723 3.88754 1.81419
C 10.40163 2.03602 -2.50187
N 10.19799 -1.14824 1.45345
C 10.36119 -2.34250 0.90439
C 10.21822 -3.53017 1.89361
C 9.30437 -2.81165 3.00153
C 9.72342 -1.36266 2.76174
C 7.81526 -2.93059 2.72272
C 11.59772 -3.98013 2.49070
C 11.57455 -5.32476 3.22090
H 12.74848 -6.18819 3.12686
N 10.29826 1.64903 2.64632
C 9.91169 0.96132 3.74126
C 9.88588 1.93775 4.84130
C 10.12921 3.29138 4.27279
C 10.09969 2.99118 2.85536
C 9.72618 1.53901 6.27968
C 10.33932 4.63594 4.90064
O 10.29544 5.71540 4.21094
C 10.50502 4.65875 6.36129
N 9.98756 2.69065 -0.18664
C 9.83290 3.84588 0.48375
C 9.72465 5.01639 -0.46419
C 10.08270 4.43318 -1.90961
C 10.25657 2.94245 -1.54505
C 8.36137 5.70562 -0.51720
C 11.22327 5.14084 -2.69128
C 12.54492 4.91472 -1.99308
N 10.73237 0.03200 -1.14279
C 10.62178 0.66846 -2.39849
C 10.73019 -0.38297 -3.43056
C 10.87440 -1.57048 -2.69741
C 10.83684 -1.28207 -1.30640
C 10.64244 -0.18051 -4.83678
C 11.03922 -3.00368 -2.78386
O 11.22310 -3.80321 -3.70075
C 10.81224 -3.62651 -1.33923
C 11.93290 -4.59265 -1.06864
O 13.10370 -4.18790 -0.95897
O 11.41355 -5.79727 -0.76942
C 12.48594 -6.78691 -0.48231
H 8.99579 -0.69682 4.68459
H 9.80276 4.93486 2.10691
H 10.47303 2.30756 -3.55725
H 9.70489 -4.39596 1.49276
H 9.57882 -3.12689 4.00486
H 7.62020 -3.37865 1.75973
H 7.42826 -1.92053 2.75541
H 7.32121 -3.46911 3.53650
H 11.85979 -3.31747 3.32553
H 12.35515 -3.99435 1.73127
H 10.66115 -5.89353 3.00839
H 11.52811 -5.13505 4.29601
H 9.40205 0.49526 6.37415
H 8.88959 2.12067 6.68175
H 10.61815 1.74465 6.87531
H 9.62788 4.22020 6.83114
H 10.73261 5.69630 6.61342
H 11.35598 4.02159 6.62684
H 10.44076 5.78795 -0.20930
H 9.22525 4.49086 -2.59611
H 8.40976 6.78693 -0.28808
H 7.69654 5.20051 0.17085
H 7.83154 5.60903 -1.46333
H 11.05988 6.22125 -2.70411
H 11.30640 4.81543 -3.72288
H 12.54892 5.68560 -1.21667
H 13.37250 5.04887 -2.68674
H 12.56297 3.94066 -1.49055
H 11.42615 -0.77553 -5.28650
H 10.74383 0.87177 -5.09405
H 9.63213 -0.55357 -5.02486
H 9.83919 -4.11918 -1.34408
H 12.32770 -7.63416 -1.15671
H 12.42317 -6.98885 0.60352
H 13.50397 -6.50824 -0.72806

