%nproc=24
%mem=175gb
#p cam-b3lyp/Def2SVP td=(nstates=5)

TDDFT excited states in gaussian

0 1
Mg 15.77349 1.42428 1.20370
C 15.87742 -0.76860 4.04263
C 14.81311 3.90270 3.34139
C 15.23698 3.26240 -1.32630
C 15.61854 -1.41611 -0.80973
N 15.42549 1.44186 3.38793
C 15.55608 0.56475 4.37178
C 15.40835 1.16748 5.79461
C 14.52836 2.45728 5.41922
C 14.97049 2.64114 3.96891
C 13.03249 2.18980 5.43228
C 16.78955 1.57584 6.41713
C 16.75395 1.88236 7.91597
H 17.90939 1.51390 8.72940
N 15.60029 3.39625 1.06251
C 15.22045 4.25144 2.03494
C 15.23296 5.58876 1.42209
C 15.49172 5.43446 -0.03529
C 15.43104 3.99217 -0.16254
C 15.09156 6.85150 2.22140
C 15.73857 6.42228 -1.13505
O 15.70284 6.07865 -2.36934
C 15.93088 7.82190 -0.72815
N 15.25862 0.99816 -0.76497
C 15.13800 1.97973 -1.67596
C 15.03501 1.41717 -3.07357
C 15.35591 -0.14326 -2.93333
C 15.50793 -0.23345 -1.39901
C 13.68434 1.59851 -3.76581
C 16.49549 -0.71020 -3.82361
C 17.82494 -0.13854 -3.38637
N 15.93549 -0.70861 1.50794
C 15.81448 -1.72118 0.53114
C 15.88435 -3.01727 1.23663
C 16.01911 -2.66588 2.58825
C 16.01202 -1.25076 2.71818
C 15.77522 -4.30089 0.63122
C 16.15508 -3.17037 3.93573
O 16.30724 -4.28454 4.43494
C 15.94229 -1.96549 4.95030
C 17.04907 -2.01403 5.96776
O 18.22912 -1.81769 5.62786
O 16.51238 -2.06750 7.20043
C 17.57075 -2.10601 8.24455
H 14.29029 4.69060 3.88430
H 15.15771 3.85020 -2.24374
H 15.67613 -2.34772 -1.37670
H 14.87155 0.54327 6.49888
H 14.81475 3.31850 6.01725
H 12.81170 1.14269 5.57702
H 12.66541 2.52450 4.47089
H 12.54300 2.82210 6.17855
H 17.07912 2.56148 6.03061
H 17.53281 0.82829 6.21874
H 15.82624 1.53399 8.38602
H 16.73043 2.96682 8.04792
H 14.74941 6.64473 3.24296
H 14.27353 7.42466 1.77175
H 15.99782 7.46078 2.21023
H 15.05414 8.16318 -0.18289
H 16.18263 8.36048 -1.64381
H 16.77421 7.87063 -0.03027
H 15.77012 1.86971 -3.72774
H 14.48751 -0.76340 -3.20007
H 13.75738 2.13194 -4.73235
H 13.02250 2.12421 -3.09042
H 13.13587 0.67766 -3.95660
H 16.35246 -0.40359 -4.86269
H 16.55389 -1.79346 -3.81261
H 17.85752 0.82867 -3.89679
H 18.64232 -0.78152 -3.70654
H 17.83349 0.05744 -2.30787
H 16.53929 -4.92230 1.07904
H 15.89195 -4.24225 -0.44892
H 14.75479 -4.56661 0.91998
H 14.96013 -2.09173 5.40745
H 17.38436 -2.99445 8.85579
H 17.52367 -1.12518 8.75397
H 18.58932 -2.28285 7.91945

