%nproc=24
%mem=175gb
#p cam-b3lyp/Def2SVP td=(nstates=5)

TDDFT excited states in gaussian

0 1
Mg 0.00000 0.00000 0.00000
C -0.21700 -2.21800 2.80100
C -1.25500 2.44200 2.02600
C -0.24500 1.85000 -2.56400
C 0.14600 -2.82400 -2.03700
N -0.61700 -0.00900 2.12600
C -0.59400 -0.90800 3.10500
C -0.93600 -0.30900 4.50200
C -1.77300 0.96400 4.03200
C -1.15500 1.16800 2.66000
C -3.26300 0.68500 3.86300
C 0.34500 0.11000 5.29900
C 0.12400 0.39700 6.78700
H 1.16800 0.03300 7.73300
N -0.18500 1.96100 -0.15200
C -0.70300 2.80000 0.77700
C -0.62000 4.15600 0.19300
C -0.18700 4.01500 -1.22500
C -0.21400 2.58300 -1.38000
C -0.88700 5.40600 0.97400
C 0.18100 5.01300 -2.27700
O 0.30300 4.69000 -3.50800
C 0.31000 6.41400 -1.83700
N -0.26500 -0.41300 -2.02900
C -0.27900 0.56900 -2.93700
C -0.19600 0.02400 -4.33200
C 0.12400 -1.53300 -4.18000
C 0.08600 -1.63200 -2.63500
C -1.45100 0.20500 -5.19700
C 1.37300 -2.07000 -4.92300
C 2.62600 -1.49000 -4.30600
N 0.15000 -2.14400 0.30300
C 0.17300 -3.13600 -0.68800
C 0.17300 -4.43800 0.00400
C 0.13300 -4.11100 1.35800
C 0.08300 -2.69500 1.50200
C 0.14900 -5.71500 -0.62300
C 0.09600 -4.62900 2.71600
O 0.20800 -5.74700 3.22100
C -0.25500 -3.42800 3.70100
C 0.71700 -3.48200 4.84800
O 1.93100 -3.25500 4.66900
O 0.03800 -3.55600 6.00300
C 0.94300 -3.58300 7.18300
H -1.85900 3.22000 2.49700
H -0.21800 2.45300 -3.47400
H 0.27600 -3.74700 -2.60500
H -1.55400 -0.94900 5.13200
H -1.58500 1.83100 4.66500
H -3.48400 -0.37700 3.96900
H -3.51100 1.02700 2.85800
H -3.85200 1.30100 4.54300
H 0.66900 1.09600 4.96600
H 1.13000 -0.63900 5.18900
H -0.84400 0.02600 7.12500
H 0.06200 1.47700 6.92100
H -1.34400 5.18600 1.93800
H -1.65100 5.96300 0.43200
H 0.00700 6.02000 1.08400
H -0.63500 6.74400 -1.40500
H 0.66500 6.97000 -2.70400
H 1.04800 6.46600 -1.03600
H 0.60800 0.50100 -4.89100
H -0.69200 -2.15600 -4.54700
H -1.26700 0.74000 -6.12900
H -2.20400 0.71400 -4.59600
H -1.96700 -0.72000 -5.45300
H 1.35600 -1.75900 -5.96700
H 1.45200 -3.15700 -4.90200
H 2.71400 -0.52200 -4.79800
H 3.48700 -2.12100 -4.52900
H 2.49500 -1.30300 -3.24000
H 0.86700 -6.33300 -0.08400
H 0.40400 -5.64200 -1.68000
H -0.89100 -5.99900 -0.46300
H -1.28300 -3.58100 4.02800
H 0.69800 -4.47800 7.75500
H 0.83300 -2.61900 7.68000
H 2.00000 -3.75400 6.97600
Mg 8.94084 0.81258 0.67796
C 8.34843 2.43111 3.82573
C 7.91255 3.69513 -0.82807
C 9.02105 -0.72527 -2.09621
C 8.81651 -2.22834 2.37591
N 8.24549 2.74477 1.49978
C 8.12057 3.26518 2.71135
C 7.80760 4.78548 2.72921
C 7.14190 4.91106 1.27321
C 7.83132 3.73364 0.58686
C 5.64410 4.65427 1.27209
C 9.10427 5.66135 2.84544
C 8.85758 7.13439 3.17866
H 9.81955 7.82532 4.03289
N 9.00244 1.51354 -1.17769
C 8.56184 2.71396 -1.60913
C 8.81535 2.73857 -3.05802
C 9.29028 1.39096 -3.47408
C 9.09899 0.65211 -2.24217
C 8.67994 3.98286 -3.88676
C 9.81604 0.85279 -4.77029
O 9.94573 -0.40605 -4.97358
C 10.08639 1.83789 -5.82764
N 8.71142 -1.19005 0.16884
C 8.84529 -1.59925 -1.10495
C 8.91246 -3.10546 -1.18982
C 9.03941 -3.61564 0.32054
C 8.92905 -2.26155 1.05515
C 7.71945 -3.78793 -1.85867
C 10.24238 -4.54059 0.65218
C 11.53573 -3.76633 0.53745
N 8.82466 0.18781 2.74296
C 8.75802 -1.13551 3.23129
C 8.57458 -1.05082 4.69471
C 8.52375 0.32683 4.95544
C 8.64525 1.04947 3.73785
C 8.43044 -2.15580 5.58036
C 8.38428 1.33393 5.98256
O 8.33441 1.31994 7.21181
C 8.13765 2.73929 5.28217
C 9.05247 3.74550 5.92494
O 10.28619 3.64597 5.80394
O 8.31954 4.77377 6.38955
C 9.18359 5.80325 7.02626
H 7.39455 4.46648 -1.39867
H 9.15489 -1.30484 -3.01254
H 8.86686 -3.13074 2.98894
H 7.10029 5.09475 3.48937
H 7.41647 5.84653 0.79271
H 5.29322 4.31251 2.23450
H 5.47601 3.89713 0.51742
H 5.10921 5.54484 0.92990
H 9.55550 5.76681 1.85045
H 9.78666 5.23919 3.55731
H 7.83413 7.31151 3.53098
H 8.92768 7.71538 2.25587
H 8.15602 4.77592 -3.33907
H 8.01134 3.74090 -4.72001
H 9.63519 4.32727 -4.28869
H 9.17360 2.38345 -6.05488
H 10.53946 1.27285 -6.64455
H 10.80513 2.57189 -5.44649
H 9.78798 -3.42298 -1.74276
H 8.16543 -4.21025 0.62458
H 8.00495 -4.41922 -2.72125
H 7.01577 -3.02440 -2.16265
H 7.11514 -4.41040 -1.20101
H 10.30377 -5.35646 -0.07221
H 10.18334 -4.98917 1.63822
H 11.75311 -3.80640 -0.53410
H 12.32172 -4.24531 1.11783
H 11.38915 -2.71341 0.80492
H 9.04130 -1.94172 6.44726
H 8.72711 -3.08813 5.10442
H 7.35430 -2.11549 5.76897
H 7.08637 2.99447 5.42093
H 8.80724 5.95177 8.04311
H 9.15813 6.67617 6.34722
H 10.21703 5.54038 7.21954

