%nproc=24
%mem=175gb
#p cam-b3lyp/Def2SVP td=(nstates=5)

TDDFT excited states in gaussian

0 1
Mg 0.00000 0.00000 0.00000
C -0.21700 -2.21800 2.80100
C -1.25500 2.44200 2.02600
C -0.24500 1.85000 -2.56400
C 0.14600 -2.82400 -2.03700
N -0.61700 -0.00900 2.12600
C -0.59400 -0.90800 3.10500
C -0.93600 -0.30900 4.50200
C -1.77300 0.96400 4.03200
C -1.15500 1.16800 2.66000
C -3.26300 0.68500 3.86300
C 0.34500 0.11000 5.29900
C 0.12400 0.39700 6.78700
H 1.16800 0.03300 7.73300
N -0.18500 1.96100 -0.15200
C -0.70300 2.80000 0.77700
C -0.62000 4.15600 0.19300
C -0.18700 4.01500 -1.22500
C -0.21400 2.58300 -1.38000
C -0.88700 5.40600 0.97400
C 0.18100 5.01300 -2.27700
O 0.30300 4.69000 -3.50800
C 0.31000 6.41400 -1.83700
N -0.26500 -0.41300 -2.02900
C -0.27900 0.56900 -2.93700
C -0.19600 0.02400 -4.33200
C 0.12400 -1.53300 -4.18000
C 0.08600 -1.63200 -2.63500
C -1.45100 0.20500 -5.19700
C 1.37300 -2.07000 -4.92300
C 2.62600 -1.49000 -4.30600
N 0.15000 -2.14400 0.30300
C 0.17300 -3.13600 -0.68800
C 0.17300 -4.43800 0.00400
C 0.13300 -4.11100 1.35800
C 0.08300 -2.69500 1.50200
C 0.14900 -5.71500 -0.62300
C 0.09600 -4.62900 2.71600
O 0.20800 -5.74700 3.22100
C -0.25500 -3.42800 3.70100
C 0.71700 -3.48200 4.84800
O 1.93100 -3.25500 4.66900
O 0.03800 -3.55600 6.00300
C 0.94300 -3.58300 7.18300
H -1.85900 3.22000 2.49700
H -0.21800 2.45300 -3.47400
H 0.27600 -3.74700 -2.60500
H -1.55400 -0.94900 5.13200
H -1.58500 1.83100 4.66500
H -3.48400 -0.37700 3.96900
H -3.51100 1.02700 2.85800
H -3.85200 1.30100 4.54300
H 0.66900 1.09600 4.96600
H 1.13000 -0.63900 5.18900
H -0.84400 0.02600 7.12500
H 0.06200 1.47700 6.92100
H -1.34400 5.18600 1.93800
H -1.65100 5.96300 0.43200
H 0.00700 6.02000 1.08400
H -0.63500 6.74400 -1.40500
H 0.66500 6.97000 -2.70400
H 1.04800 6.46600 -1.03600
H 0.60800 0.50100 -4.89100
H -0.69200 -2.15600 -4.54700
H -1.26700 0.74000 -6.12900
H -2.20400 0.71400 -4.59600
H -1.96700 -0.72000 -5.45300
H 1.35600 -1.75900 -5.96700
H 1.45200 -3.15700 -4.90200
H 2.71400 -0.52200 -4.79800
H 3.48700 -2.12100 -4.52900
H 2.49500 -1.30300 -3.24000
H 0.86700 -6.33300 -0.08400
H 0.40400 -5.64200 -1.68000
H -0.89100 -5.99900 -0.46300
H -1.28300 -3.58100 4.02800
H 0.69800 -4.47800 7.75500
H 0.83300 -2.61900 7.68000
H 2.00000 -3.75400 6.97600
Mg 7.87454 0.71126 0.60483
C 9.18961 2.91502 3.11343
C 7.13378 -1.46893 3.12131
C 7.12349 -1.43406 -1.60898
C 9.71809 2.50940 -1.74329
N 8.17114 0.82226 2.79389
C 8.62476 1.73474 3.64003
C 8.39099 1.39654 5.13688
C 8.28170 -0.20046 5.00836
C 7.79806 -0.29681 3.56285
C 9.62386 -0.90573 5.11096
C 7.06191 2.02058 5.69016
C 6.92386 1.99254 7.21394
H 6.25467 3.11077 7.87289
N 6.79185 -0.94663 0.73809
C 6.57798 -1.69227 1.84242
C 5.73352 -2.81701 1.41112
C 5.60270 -2.76421 -0.07037
C 6.53843 -1.70183 -0.37993
C 5.07791 -3.75981 2.37793
C 4.78201 -3.54965 -1.04799
O 5.00315 -3.49558 -2.30934
C 3.77335 -4.45521 -0.47874
N 8.51225 0.42284 -1.35284
C 7.98745 -0.55333 -2.11416
C 8.39408 -0.39574 -3.55991
C 9.10662 1.03300 -3.65252
C 9.06629 1.43302 -2.16130
C 9.33420 -1.46945 -4.10737
C 8.54614 2.03231 -4.70129
C 7.15416 2.46934 -4.30534
N 9.06787 2.51236 0.61251
C 9.77283 3.07314 -0.47499
C 10.52847 4.23056 0.04636
C 10.22643 4.24916 1.41636
C 9.36083 3.16684 1.73068
C 11.39705 5.06631 -0.71075
C 10.45150 4.93197 2.67008
O 11.02696 5.96670 3.00462
C 9.89108 4.02367 3.84792
C 9.06591 4.89542 4.75438
O 8.01109 5.41225 4.34592
O 9.54014 4.79914 6.00985
C 8.74728 5.63762 6.94801
H 7.06731 -2.31617 3.80443
H 6.80904 -2.08039 -2.43169
H 10.23890 3.17990 -2.43022
H 9.20934 1.66142 5.79561
H 7.53418 -0.60118 5.68806
H 10.44592 -0.20589 5.13520
H 9.69135 -1.53848 4.23568
H 9.63032 -1.58043 5.97182
H 6.21994 1.37314 5.41328
H 6.93534 3.02455 5.33427
H 7.87596 1.76812 7.71001
H 6.27523 1.15705 7.48829
H 5.49042 -3.65078 3.38855
H 5.36093 -4.77431 2.07702
H 3.98875 -3.68006 2.37113
H 4.26096 -5.17198 0.17773
H 3.22885 -4.86064 -1.33374
H 3.09051 -3.86943 0.14674
H 7.52641 -0.39838 -4.20817
H 10.16840 0.94190 -3.92484
H 8.93270 -1.98803 -4.99841
H 9.54095 -2.17778 -3.31613
H 10.33100 -1.11982 -4.37073
H 8.45348 1.54637 -5.67568
H 9.16878 2.91028 -4.83718
H 6.52385 1.65990 -4.68559
H 6.90287 3.41869 -4.77400
H 7.04311 2.48915 -3.21496
H 11.18624 6.08498 -0.41347
H 11.25239 4.92531 -1.77984
H 12.36831 4.69304 -0.37520
H 10.74876 3.59158 4.36489
H 9.45155 6.30746 7.45101
H 8.18695 4.92646 7.58365
H 8.05001 6.34755 6.51875

