%nproc=24
%mem=175gb
#p cam-b3lyp/Def2SVP td=(nstates=5)

TDDFT excited states in gaussian

0 1
Mg 0.00000 0.00000 0.00000
C -0.21700 -2.21800 2.80100
C -1.25500 2.44200 2.02600
C -0.24500 1.85000 -2.56400
C 0.14600 -2.82400 -2.03700
N -0.61700 -0.00900 2.12600
C -0.59400 -0.90800 3.10500
C -0.93600 -0.30900 4.50200
C -1.77300 0.96400 4.03200
C -1.15500 1.16800 2.66000
C -3.26300 0.68500 3.86300
C 0.34500 0.11000 5.29900
C 0.12400 0.39700 6.78700
H 1.16800 0.03300 7.73300
N -0.18500 1.96100 -0.15200
C -0.70300 2.80000 0.77700
C -0.62000 4.15600 0.19300
C -0.18700 4.01500 -1.22500
C -0.21400 2.58300 -1.38000
C -0.88700 5.40600 0.97400
C 0.18100 5.01300 -2.27700
O 0.30300 4.69000 -3.50800
C 0.31000 6.41400 -1.83700
N -0.26500 -0.41300 -2.02900
C -0.27900 0.56900 -2.93700
C -0.19600 0.02400 -4.33200
C 0.12400 -1.53300 -4.18000
C 0.08600 -1.63200 -2.63500
C -1.45100 0.20500 -5.19700
C 1.37300 -2.07000 -4.92300
C 2.62600 -1.49000 -4.30600
N 0.15000 -2.14400 0.30300
C 0.17300 -3.13600 -0.68800
C 0.17300 -4.43800 0.00400
C 0.13300 -4.11100 1.35800
C 0.08300 -2.69500 1.50200
C 0.14900 -5.71500 -0.62300
C 0.09600 -4.62900 2.71600
O 0.20800 -5.74700 3.22100
C -0.25500 -3.42800 3.70100
C 0.71700 -3.48200 4.84800
O 1.93100 -3.25500 4.66900
O 0.03800 -3.55600 6.00300
C 0.94300 -3.58300 7.18300
H -1.85900 3.22000 2.49700
H -0.21800 2.45300 -3.47400
H 0.27600 -3.74700 -2.60500
H -1.55400 -0.94900 5.13200
H -1.58500 1.83100 4.66500
H -3.48400 -0.37700 3.96900
H -3.51100 1.02700 2.85800
H -3.85200 1.30100 4.54300
H 0.66900 1.09600 4.96600
H 1.13000 -0.63900 5.18900
H -0.84400 0.02600 7.12500
H 0.06200 1.47700 6.92100
H -1.34400 5.18600 1.93800
H -1.65100 5.96300 0.43200
H 0.00700 6.02000 1.08400
H -0.63500 6.74400 -1.40500
H 0.66500 6.97000 -2.70400
H 1.04800 6.46600 -1.03600
H 0.60800 0.50100 -4.89100
H -0.69200 -2.15600 -4.54700
H -1.26700 0.74000 -6.12900
H -2.20400 0.71400 -4.59600
H -1.96700 -0.72000 -5.45300
H 1.35600 -1.75900 -5.96700
H 1.45200 -3.15700 -4.90200
H 2.71400 -0.52200 -4.79800
H 3.48700 -2.12100 -4.52900
H 2.49500 -1.30300 -3.24000
H 0.86700 -6.33300 -0.08400
H 0.40400 -5.64200 -1.68000
H -0.89100 -5.99900 -0.46300
H -1.28300 -3.58100 4.02800
H 0.69800 -4.47800 7.75500
H 0.83300 -2.61900 7.68000
H 2.00000 -3.75400 6.97600
Mg 10.51833 0.94628 0.80596
C 8.83047 -0.80504 3.44472
C 10.78799 3.59468 2.93853
C 11.60129 2.66897 -1.62858
C 9.12761 -1.34819 -1.41823
N 9.85632 1.23605 2.89642
C 9.27969 0.47893 3.81762
C 9.25089 1.10407 5.23816
C 9.35601 2.65154 4.82206
C 10.07639 2.49654 3.48426
C 8.00530 3.29872 4.56503
C 10.47620 0.65964 6.11173
C 10.35324 0.98106 7.60281
H 10.91790 0.04034 8.56649
N 11.53727 2.64924 0.79047
C 11.54925 3.59909 1.74908
C 12.43738 4.66126 1.25192
C 12.81847 4.33635 -0.14947
C 11.96516 3.19127 -0.39596
C 12.90496 5.79962 2.11153
C 13.78105 4.96156 -1.11319
O 13.77800 4.66013 -2.35896
C 14.66456 6.00525 -0.57316
N 10.21772 0.82963 -1.24791
C 10.84912 1.66861 -2.08777
C 10.69616 1.22203 -3.52219
C 10.03156 -0.23085 -3.45127
C 9.82438 -0.34012 -1.92467
C 9.84629 2.12719 -4.41370
C 10.77706 -1.38213 -4.18030
C 12.08818 -1.66980 -3.48488
N 9.36864 -0.87586 0.96743
C 8.86708 -1.66460 -0.09106
C 8.05169 -2.73763 0.51406
C 8.11713 -2.48314 1.89227
C 8.90023 -1.32095 2.12801
C 7.33703 -3.74159 -0.19829
C 7.69305 -2.92723 3.20056
O 7.08503 -3.90654 3.63067
C 8.03156 -1.78745 4.25541
C 8.70415 -2.43229 5.43622
O 9.82076 -2.96599 5.31387
O 8.02236 -2.12371 6.55439
C 8.65724 -2.73148 7.75413
H 10.72463 4.55771 3.44591
H 12.04088 3.16281 -2.49827
H 8.74121 -2.16024 -2.03786
H 8.33678 0.92946 5.79285
H 9.97116 3.20842 5.52409
H 7.20182 2.57763 4.58972
H 8.07765 3.75112 3.58465
H 7.84256 4.12256 5.26585
H 11.34295 1.28264 5.85608
H 10.67662 -0.38623 5.98286
H 9.32746 1.24936 7.88342
H 10.93308 1.88324 7.81229
H 12.32866 5.86358 3.04276
H 12.66165 6.72452 1.57746
H 13.98057 5.77203 2.29856
H 14.06174 6.80887 -0.15690
H 15.33998 6.26766 -1.38975
H 15.24022 5.58116 0.25712
H 11.66111 1.14374 -4.00784
H 9.03012 -0.24345 -3.90602
H 10.38519 2.48698 -5.31047
H 9.49749 2.96134 -3.81950
H 8.91409 1.68706 -4.76369
H 11.02629 -1.08479 -5.20188
H 10.19998 -2.29864 -4.24334
H 12.76144 -0.91747 -3.90656
H 12.42981 -2.67741 -3.71303
H 12.01290 -1.47832 -2.40817
H 7.50987 -4.67470 0.32127
H 7.65883 -3.79798 -1.23609
H 6.31733 -3.35848 -0.10495
H 7.09209 -1.30702 4.53141
H 7.88815 -3.32724 8.25537
H 9.09067 -1.88733 8.32273
H 9.42800 -3.47555 7.59062

