%nproc=24
%mem=175gb
#p cam-b3lyp/Def2SVP td=(nstates=5)

TDDFT excited states in gaussian

0 1
Mg 7.88925 0.70588 0.60660
C 5.41865 -0.08690 3.08585
C 9.27709 2.83160 2.88473
C 9.80523 1.76004 -1.69236
C 5.69635 -0.56577 -1.78500
N 7.32962 1.21916 2.68401
C 6.40802 0.80879 3.54227
C 6.60210 1.32882 4.99191
C 7.46255 2.64408 4.66238
C 8.09490 2.19885 3.34534
C 6.60719 3.87047 4.39100
C 7.40993 0.32269 5.88473
C 7.37146 0.62044 7.38527
H 7.35742 -0.50331 8.31772
N 9.60089 1.70408 0.71833
C 10.01339 2.50183 1.72566
C 11.32991 3.01641 1.31803
C 11.58736 2.58828 -0.08380
C 10.30409 2.00575 -0.42141
C 12.23734 3.76180 2.25311
C 12.78553 2.69796 -0.97743
O 12.70931 2.47153 -2.23670
C 14.02957 3.16873 -0.35115
N 7.68806 0.80820 -1.46013
C 8.69228 1.26139 -2.23090
C 8.42592 0.98582 -3.69155
C 7.14140 0.03363 -3.72184
C 6.81997 -0.00580 -2.21170
C 8.16922 2.21420 -4.56423
C 7.28140 -1.31302 -4.48316
C 8.24995 -2.21832 -3.75671
N 5.99753 -0.33762 0.62951
C 5.24002 -0.75495 -0.48678
C 3.97571 -1.31728 0.03066
C 4.07630 -1.16589 1.42186
C 5.30700 -0.53414 1.74710
C 2.90837 -1.82991 -0.75935
C 3.41656 -1.38720 2.68853
O 2.38879 -1.96270 3.04381
C 4.20056 -0.58381 3.81383
C 4.41085 -1.50707 4.98254
O 5.13780 -2.51012 4.87282
O 3.89876 -0.93979 6.08994
C 4.09281 -1.81292 7.27813
H 9.65594 3.69028 3.43971
H 10.47730 2.00478 -2.51813
H 5.00317 -1.07178 -2.46037
H 5.68663 1.60180 5.50297
H 8.22831 2.81390 5.41480
H 5.55597 3.62705 4.34825
H 6.94444 4.25959 3.43921
H 6.82103 4.64982 5.12804
H 8.48256 0.45636 5.69410
H 7.08940 -0.68561 5.70807
H 6.58716 1.34281 7.64218
H 8.30075 1.12365 7.66314
H 11.71055 4.06945 3.16484
H 12.50020 4.70405 1.76024
H 13.15420 3.21251 2.47742
H 13.86506 4.15123 0.08484
H 14.79353 3.09547 -1.12760
H 14.28140 2.49556 0.47591
H 9.26021 0.46501 -4.14524
H 6.28544 0.51962 -4.21273
H 8.86522 2.29443 -5.42052
H 8.23139 3.09554 -3.93981
H 7.16209 2.28962 -4.97070
H 7.70111 -1.14387 -5.47784
H 6.33921 -1.83431 -4.61557
H 9.22508 -1.87322 -4.11322
H 8.07703 -3.25852 -4.02529
H 8.21443 -2.04538 -2.67483
H 2.58074 -2.74488 -0.28395
H 3.22229 -2.00489 -1.78629
H 2.19539 -1.00463 -0.68302
H 3.59411 0.28260 4.08051
H 3.10461 -1.97701 7.71884
H 4.84550 -1.30008 7.90599
H 4.41837 -2.83174 7.10362

