%nproc=24
%mem=175gb
#p cam-b3lyp/Def2SVP td=(nstates=5)

TDDFT excited states in gaussian

0 1
Mg 10.50236 0.94528 0.80470
C 11.13438 3.52423 3.21896
C 10.53915 -1.27803 3.39124
C 10.39591 -1.39466 -1.33558
C 11.63642 3.15148 -1.64321
N 10.80661 1.21030 2.97943
C 10.97693 2.24407 3.78978
C 10.89836 1.89674 5.30066
C 11.28603 0.34098 5.21023
C 10.81874 0.05511 3.78454
C 12.78286 0.08858 5.28190
C 9.45614 2.09628 5.88563
C 9.37314 2.07419 7.41350
H 8.40770 2.95071 8.07085
N 9.99053 -0.96110 1.01048
C 10.04696 -1.70173 2.13722
C 9.58170 -3.04519 1.75931
C 9.40259 -3.08135 0.28238
C 9.95470 -1.79191 -0.08176
C 9.27582 -4.11402 2.76800
C 8.84063 -4.11189 -0.64949
O 9.00135 -4.03124 -1.91854
C 8.17734 -5.26676 -0.02673
N 11.14706 0.80755 -1.16703
C 10.93103 -0.30613 -1.88882
C 11.23117 -0.07547 -3.35070
C 11.46326 1.49995 -3.49827
C 11.33964 1.91394 -2.01547
C 12.44321 -0.82248 -3.90689
C 10.59371 2.24410 -4.54842
C 9.14558 2.24157 -4.11448
N 11.07860 3.02634 0.73287
C 11.54664 3.74355 -0.38990
C 11.91968 5.09343 0.08032
C 11.66238 5.06022 1.45915
C 11.18323 3.77364 1.82606
C 12.46660 6.13282 -0.72384
C 11.69721 5.81767 2.68950
O 11.93218 6.98945 2.98186
C 11.47658 4.81759 3.90504
C 10.44569 5.41929 4.82033
O 9.27242 5.57189 4.43726
O 10.95880 5.51325 6.06060
C 9.96975 6.09429 7.00717
H 10.75623 -2.08272 4.09425
H 10.27600 -2.13171 -2.13299
H 11.90583 3.92849 -2.36178
H 11.61114 2.42185 5.92514
H 10.71736 -0.24989 5.92357
H 13.34793 1.00863 5.26296
H 13.02038 -0.51914 4.41859
H 13.02039 -0.52406 6.15630
H 8.84937 1.21206 5.65170
H 9.01552 3.00044 5.51284
H 10.36044 2.17050 7.88137
H 9.02268 1.08807 7.72776
H 9.66030 -3.85157 3.76133
H 9.85137 -5.00020 2.47940
H 8.21577 -4.37505 2.79680
H 8.87991 -5.77702 0.62786
H 7.76330 -5.84692 -0.85369
H 7.36306 -4.90161 0.60906
H 10.39053 -0.36624 -3.96866
H 12.49357 1.73307 -3.80478
H 12.19921 -1.46711 -4.77233
H 12.87971 -1.40735 -3.10819
H 13.27542 -0.19023 -4.21167
H 10.63095 1.72336 -5.50842
H 10.90990 3.26687 -4.72435
H 8.78748 1.26557 -4.45548
H 8.60042 3.05177 -4.59451
H 9.06217 2.25987 -3.02162
H 11.95829 7.04516 -0.44142
H 12.34508 5.92095 -1.78408
H 13.51407 6.08860 -0.41382
H 12.43904 4.68799 4.40148
H 10.44458 6.96425 7.47128
H 9.67405 5.26483 7.67673
H 9.07592 6.54029 6.58693

