%nproc=24
%mem=175gb
#p cam-b3lyp/Def2SVP td=(nstates=5)

TDDFT excited states in gaussian

0 1
Mg 0.00000 0.00000 0.00000
C -0.21700 -2.21800 2.80100
C -1.25500 2.44200 2.02600
C -0.24500 1.85000 -2.56400
C 0.14600 -2.82400 -2.03700
N -0.61700 -0.00900 2.12600
C -0.59400 -0.90800 3.10500
C -0.93600 -0.30900 4.50200
C -1.77300 0.96400 4.03200
C -1.15500 1.16800 2.66000
C -3.26300 0.68500 3.86300
C 0.34500 0.11000 5.29900
C 0.12400 0.39700 6.78700
H 1.16800 0.03300 7.73300
N -0.18500 1.96100 -0.15200
C -0.70300 2.80000 0.77700
C -0.62000 4.15600 0.19300
C -0.18700 4.01500 -1.22500
C -0.21400 2.58300 -1.38000
C -0.88700 5.40600 0.97400
C 0.18100 5.01300 -2.27700
O 0.30300 4.69000 -3.50800
C 0.31000 6.41400 -1.83700
N -0.26500 -0.41300 -2.02900
C -0.27900 0.56900 -2.93700
C -0.19600 0.02400 -4.33200
C 0.12400 -1.53300 -4.18000
C 0.08600 -1.63200 -2.63500
C -1.45100 0.20500 -5.19700
C 1.37300 -2.07000 -4.92300
C 2.62600 -1.49000 -4.30600
N 0.15000 -2.14400 0.30300
C 0.17300 -3.13600 -0.68800
C 0.17300 -4.43800 0.00400
C 0.13300 -4.11100 1.35800
C 0.08300 -2.69500 1.50200
C 0.14900 -5.71500 -0.62300
C 0.09600 -4.62900 2.71600
O 0.20800 -5.74700 3.22100
C -0.25500 -3.42800 3.70100
C 0.71700 -3.48200 4.84800
O 1.93100 -3.25500 4.66900
O 0.03800 -3.55600 6.00300
C 0.94300 -3.58300 7.18300
H -1.85900 3.22000 2.49700
H -0.21800 2.45300 -3.47400
H 0.27600 -3.74700 -2.60500
H -1.55400 -0.94900 5.13200
H -1.58500 1.83100 4.66500
H -3.48400 -0.37700 3.96900
H -3.51100 1.02700 2.85800
H -3.85200 1.30100 4.54300
H 0.66900 1.09600 4.96600
H 1.13000 -0.63900 5.18900
H -0.84400 0.02600 7.12500
H 0.06200 1.47700 6.92100
H -1.34400 5.18600 1.93800
H -1.65100 5.96300 0.43200
H 0.00700 6.02000 1.08400
H -0.63500 6.74400 -1.40500
H 0.66500 6.97000 -2.70400
H 1.04800 6.46600 -1.03600
H 0.60800 0.50100 -4.89100
H -0.69200 -2.15600 -4.54700
H -1.26700 0.74000 -6.12900
H -2.20400 0.71400 -4.59600
H -1.96700 -0.72000 -5.45300
H 1.35600 -1.75900 -5.96700
H 1.45200 -3.15700 -4.90200
H 2.71400 -0.52200 -4.79800
H 3.48700 -2.12100 -4.52900
H 2.49500 -1.30300 -3.24000
H 0.86700 -6.33300 -0.08400
H 0.40400 -5.64200 -1.68000
H -0.89100 -5.99900 -0.46300
H -1.28300 -3.58100 4.02800
H 0.69800 -4.47800 7.75500
H 0.83300 -2.61900 7.68000
H 2.00000 -3.75400 6.97600
Mg 7.89062 0.70971 0.60634
C 6.20276 -1.04161 3.24511
C 8.16027 3.35811 2.73892
C 8.97358 2.43240 -1.82819
C 6.49990 -1.58475 -1.61784
N 7.22861 0.99948 2.69681
C 6.65198 0.24236 3.61801
C 6.62318 0.86750 5.03855
C 6.72830 2.41498 4.62245
C 7.44868 2.25997 3.28465
C 5.37758 3.06215 4.36542
C 7.84848 0.42307 5.91212
C 7.72553 0.74450 7.40320
H 8.29019 -0.19622 8.36688
N 8.90956 2.41268 0.59086
C 8.92153 3.36252 1.54947
C 9.80966 4.42470 1.05231
C 10.19076 4.09978 -0.34909
C 9.33745 2.95471 -0.59557
C 10.27725 5.56305 1.91192
C 11.15334 4.72500 -1.31280
O 11.15028 4.42356 -2.55857
C 12.03684 5.76869 -0.77277
N 7.59001 0.59306 -1.44752
C 8.22141 1.43205 -2.28738
C 8.06845 0.98546 -3.72180
C 7.40385 -0.46742 -3.65088
C 7.19666 -0.57668 -2.12428
C 7.21857 1.89062 -4.61331
C 8.14935 -1.61869 -4.37991
C 9.46047 -1.90636 -3.68449
N 6.74093 -1.11243 0.76782
C 6.23936 -1.90117 -0.29067
C 5.42398 -2.97420 0.31445
C 5.48942 -2.71971 1.69266
C 6.27251 -1.55752 1.92840
C 4.70931 -3.97816 -0.39790
C 5.06533 -3.16379 3.00095
O 4.45732 -4.14311 3.43106
C 5.40384 -2.02401 4.05580
C 6.07644 -2.66886 5.23661
O 7.19304 -3.20256 5.11426
O 5.39465 -2.36028 6.35478
C 6.02953 -2.96804 7.55452
H 8.09692 4.32115 3.24630
H 9.41317 2.92624 -2.69788
H 6.11350 -2.39681 -2.23747
H 5.70906 0.69289 5.59324
H 7.34345 2.97185 5.32448
H 4.57411 2.34107 4.39011
H 5.44994 3.51455 3.38504
H 5.21485 3.88599 5.06624
H 8.71523 1.04607 5.65647
H 8.04891 -0.62280 5.78325
H 6.69975 1.01279 7.68381
H 8.30536 1.64668 7.61267
H 9.70095 5.62702 2.84315
H 10.03394 6.48795 1.37785
H 11.35285 5.53546 2.09895
H 11.43403 6.57231 -0.35651
H 12.71227 6.03110 -1.58936
H 12.61251 5.34459 0.05751
H 9.03339 0.90718 -4.20745
H 6.40241 -0.48002 -4.10563
H 7.75747 2.25041 -5.51008
H 6.86978 2.72477 -4.01911
H 6.28637 1.45049 -4.96330
H 8.39857 -1.32136 -5.40149
H 7.57227 -2.53520 -4.44296
H 10.13373 -1.15404 -4.10617
H 9.80209 -2.91397 -3.91264
H 9.38518 -1.71488 -2.60778
H 4.88215 -4.91126 0.12166
H 5.03111 -4.03455 -1.43570
H 3.68962 -3.59504 -0.30456
H 4.46438 -1.54358 4.33180
H 5.26043 -3.56381 8.05576
H 6.46295 -2.12389 8.12312
H 6.80029 -3.71212 7.39101

