%nproc=24
%mem=175gb
#p cam-b3lyp/Def2SVP td=(nstates=5)

TDDFT excited states in gaussian

0 1
Mg 0.00000 0.00000 0.00000
C -0.21700 -2.21800 2.80100
C -1.25500 2.44200 2.02600
C -0.24500 1.85000 -2.56400
C 0.14600 -2.82400 -2.03700
N -0.61700 -0.00900 2.12600
C -0.59400 -0.90800 3.10500
C -0.93600 -0.30900 4.50200
C -1.77300 0.96400 4.03200
C -1.15500 1.16800 2.66000
C -3.26300 0.68500 3.86300
C 0.34500 0.11000 5.29900
C 0.12400 0.39700 6.78700
H 1.16800 0.03300 7.73300
N -0.18500 1.96100 -0.15200
C -0.70300 2.80000 0.77700
C -0.62000 4.15600 0.19300
C -0.18700 4.01500 -1.22500
C -0.21400 2.58300 -1.38000
C -0.88700 5.40600 0.97400
C 0.18100 5.01300 -2.27700
O 0.30300 4.69000 -3.50800
C 0.31000 6.41400 -1.83700
N -0.26500 -0.41300 -2.02900
C -0.27900 0.56900 -2.93700
C -0.19600 0.02400 -4.33200
C 0.12400 -1.53300 -4.18000
C 0.08600 -1.63200 -2.63500
C -1.45100 0.20500 -5.19700
C 1.37300 -2.07000 -4.92300
C 2.62600 -1.49000 -4.30600
N 0.15000 -2.14400 0.30300
C 0.17300 -3.13600 -0.68800
C 0.17300 -4.43800 0.00400
C 0.13300 -4.11100 1.35800
C 0.08300 -2.69500 1.50200
C 0.14900 -5.71500 -0.62300
C 0.09600 -4.62900 2.71600
O 0.20800 -5.74700 3.22100
C -0.25500 -3.42800 3.70100
C 0.71700 -3.48200 4.84800
O 1.93100 -3.25500 4.66900
O 0.03800 -3.55600 6.00300
C 0.94300 -3.58300 7.18300
H -1.85900 3.22000 2.49700
H -0.21800 2.45300 -3.47400
H 0.27600 -3.74700 -2.60500
H -1.55400 -0.94900 5.13200
H -1.58500 1.83100 4.66500
H -3.48400 -0.37700 3.96900
H -3.51100 1.02700 2.85800
H -3.85200 1.30100 4.54300
H 0.66900 1.09600 4.96600
H 1.13000 -0.63900 5.18900
H -0.84400 0.02600 7.12500
H 0.06200 1.47700 6.92100
H -1.34400 5.18600 1.93800
H -1.65100 5.96300 0.43200
H 0.00700 6.02000 1.08400
H -0.63500 6.74400 -1.40500
H 0.66500 6.97000 -2.70400
H 1.04800 6.46600 -1.03600
H 0.60800 0.50100 -4.89100
H -0.69200 -2.15600 -4.54700
H -1.26700 0.74000 -6.12900
H -2.20400 0.71400 -4.59600
H -1.96700 -0.72000 -5.45300
H 1.35600 -1.75900 -5.96700
H 1.45200 -3.15700 -4.90200
H 2.71400 -0.52200 -4.79800
H 3.48700 -2.12100 -4.52900
H 2.49500 -1.30300 -3.24000
H 0.86700 -6.33300 -0.08400
H 0.40400 -5.64200 -1.68000
H -0.89100 -5.99900 -0.46300
H -1.28300 -3.58100 4.02800
H 0.69800 -4.47800 7.75500
H 0.83300 -2.61900 7.68000
H 2.00000 -3.75400 6.97600
Mg 7.88655 0.71254 0.58921
C 10.55016 -1.64100 0.09414
C 10.21252 3.18626 0.26489
C 5.65442 2.78993 1.46638
C 6.03441 -1.88839 1.98579
N 10.06786 0.65435 0.22758
C 10.96114 -0.29542 -0.00555
C 12.35544 0.22677 -0.44465
C 12.27651 1.69510 0.20085
C 10.76045 1.88012 0.20270
C 12.76585 1.74755 1.63860
C 12.50476 0.29263 -2.00522
C 13.93616 0.49721 -2.50621
H 14.34030 -0.16014 -3.74599
N 7.80288 2.68182 0.35791
C 8.84350 3.52961 0.21775
C 8.25518 4.87295 0.10160
C 6.79166 4.76716 0.34981
C 6.69398 3.38184 0.76388
C 9.05474 6.07992 -0.29509
C 5.66804 5.75349 0.24565
O 4.51024 5.50972 0.73850
C 5.98902 7.05052 -0.36766
N 6.18535 0.53887 1.77161
C 5.35770 1.58346 1.94980
C 4.06704 1.15140 2.60395
C 4.10174 -0.44746 2.60816
C 5.50803 -0.67163 2.01027
C 3.84042 1.65902 4.02780
C 2.89639 -1.17929 1.95683
C 2.88614 -0.93070 0.46569
N 8.12876 -1.42244 0.81567
C 7.24387 -2.31822 1.45491
C 7.89367 -3.64494 1.45699
C 9.13114 -3.42239 0.83440
C 9.25301 -2.04953 0.48815
C 7.35774 -4.83283 2.02956
C 10.36647 -4.03457 0.40093
O 10.79406 -5.18713 0.35094
C 11.39296 -2.88367 0.01604
C 12.00519 -3.23264 -1.31284
O 11.30677 -3.26592 -2.34129
O 13.34472 -3.25583 -1.18837
C 13.99762 -3.58665 -2.48301
H 10.89165 4.02764 0.40536
H 4.80849 3.44222 1.69528
H 5.48095 -2.77058 2.31458
H 13.19554 -0.31713 -0.02971
H 12.75006 2.43428 -0.44003
H 12.97599 0.76281 2.02884
H 11.97052 2.21643 2.20310
H 13.62753 2.41635 1.71937
H 12.04368 1.21940 -2.37024
H 12.08193 -0.57912 -2.46554
H 14.67800 0.32036 -1.71796
H 14.06600 1.55089 -2.76492
H 10.13259 5.88070 -0.25093
H 8.88750 6.84132 0.47444
H 8.75407 6.48457 -1.26386
H 6.78419 7.53049 0.19784
H 5.03950 7.58516 -0.43444
H 6.38194 6.87348 -1.37508
H 3.21172 1.48281 2.02801
H 4.12694 -0.85177 3.63077
H 2.89958 2.22962 4.14318
H 4.69006 2.26487 4.31346
H 3.83650 0.88906 4.79744
H 1.95615 -0.77958 2.34458
H 2.89095 -2.24883 2.13856
H 2.38947 0.04049 0.38083
H 2.32401 -1.70774 -0.04836
H 3.90529 -0.81465 0.07903
H 7.54054 -5.62984 1.32114
H 6.29650 -4.72675 2.24471
H 7.95704 -4.89728 2.94167
H 12.13935 -2.83155 0.80961
H 14.63863 -4.45556 -2.30472
H 14.49304 -2.65475 -2.81448
H 13.36558 -3.95099 -3.28440

