%nproc=24
%mem=175gb
#p cam-b3lyp/Def2SVP td=(nstates=5)

TDDFT excited states in gaussian

0 1
Mg 0.00000 0.00000 0.00000
C -0.21700 -2.21800 2.80100
C -1.25500 2.44200 2.02600
C -0.24500 1.85000 -2.56400
C 0.14600 -2.82400 -2.03700
N -0.61700 -0.00900 2.12600
C -0.59400 -0.90800 3.10500
C -0.93600 -0.30900 4.50200
C -1.77300 0.96400 4.03200
C -1.15500 1.16800 2.66000
C -3.26300 0.68500 3.86300
C 0.34500 0.11000 5.29900
C 0.12400 0.39700 6.78700
H 1.16800 0.03300 7.73300
N -0.18500 1.96100 -0.15200
C -0.70300 2.80000 0.77700
C -0.62000 4.15600 0.19300
C -0.18700 4.01500 -1.22500
C -0.21400 2.58300 -1.38000
C -0.88700 5.40600 0.97400
C 0.18100 5.01300 -2.27700
O 0.30300 4.69000 -3.50800
C 0.31000 6.41400 -1.83700
N -0.26500 -0.41300 -2.02900
C -0.27900 0.56900 -2.93700
C -0.19600 0.02400 -4.33200
C 0.12400 -1.53300 -4.18000
C 0.08600 -1.63200 -2.63500
C -1.45100 0.20500 -5.19700
C 1.37300 -2.07000 -4.92300
C 2.62600 -1.49000 -4.30600
N 0.15000 -2.14400 0.30300
C 0.17300 -3.13600 -0.68800
C 0.17300 -4.43800 0.00400
C 0.13300 -4.11100 1.35800
C 0.08300 -2.69500 1.50200
C 0.14900 -5.71500 -0.62300
C 0.09600 -4.62900 2.71600
O 0.20800 -5.74700 3.22100
C -0.25500 -3.42800 3.70100
C 0.71700 -3.48200 4.84800
O 1.93100 -3.25500 4.66900
O 0.03800 -3.55600 6.00300
C 0.94300 -3.58300 7.18300
H -1.85900 3.22000 2.49700
H -0.21800 2.45300 -3.47400
H 0.27600 -3.74700 -2.60500
H -1.55400 -0.94900 5.13200
H -1.58500 1.83100 4.66500
H -3.48400 -0.37700 3.96900
H -3.51100 1.02700 2.85800
H -3.85200 1.30100 4.54300
H 0.66900 1.09600 4.96600
H 1.13000 -0.63900 5.18900
H -0.84400 0.02600 7.12500
H 0.06200 1.47700 6.92100
H -1.34400 5.18600 1.93800
H -1.65100 5.96300 0.43200
H 0.00700 6.02000 1.08400
H -0.63500 6.74400 -1.40500
H 0.66500 6.97000 -2.70400
H 1.04800 6.46600 -1.03600
H 0.60800 0.50100 -4.89100
H -0.69200 -2.15600 -4.54700
H -1.26700 0.74000 -6.12900
H -2.20400 0.71400 -4.59600
H -1.96700 -0.72000 -5.45300
H 1.35600 -1.75900 -5.96700
H 1.45200 -3.15700 -4.90200
H 2.71400 -0.52200 -4.79800
H 3.48700 -2.12100 -4.52900
H 2.49500 -1.30300 -3.24000
H 0.86700 -6.33300 -0.08400
H 0.40400 -5.64200 -1.68000
H -0.89100 -5.99900 -0.46300
H -1.28300 -3.58100 4.02800
H 0.69800 -4.47800 7.75500
H 0.83300 -2.61900 7.68000
H 2.00000 -3.75400 6.97600
Mg 15.75606 1.42210 1.19688
C 14.44461 -1.39921 -0.59179
C 14.70181 3.36826 -1.39844
C 17.29304 3.85749 2.52879
C 17.67622 -0.82051 3.04873
N 14.71889 0.93174 -0.69417
C 14.21587 -0.16638 -1.23773
C 13.35437 0.07989 -2.50530
C 13.98770 1.48470 -2.95728
C 14.47169 1.98348 -1.59726
C 15.19469 1.33536 -3.86843
C 11.82731 0.21881 -2.17243
C 10.89612 0.15172 -3.38492
H 9.59386 -0.49005 -3.22774
N 15.55848 3.37609 0.91144
C 15.09215 3.99391 -0.19406
C 15.16598 5.43557 0.08935
C 15.86752 5.62293 1.38837
C 16.29463 4.26418 1.65568
C 14.53232 6.47177 -0.79280
C 16.12405 6.82802 2.24169
O 16.96049 6.79998 3.21247
C 15.43719 8.06731 1.84944
N 17.41902 1.52971 2.43999
C 17.84882 2.71026 2.91903
C 18.88095 2.51551 4.00401
C 18.87792 0.94853 4.32358
C 17.86395 0.47513 3.25909
C 20.30157 2.96145 3.65852
C 18.64611 0.53221 5.80196
C 17.23522 0.87815 6.22040
N 15.89900 -0.72645 1.37385
C 16.78897 -1.45771 2.19074
C 16.58740 -2.88832 1.88230
C 15.60264 -2.88889 0.88293
C 15.23215 -1.55197 0.57491
C 17.30379 -3.97324 2.46184
C 14.79995 -3.71598 0.01098
O 14.61933 -4.92653 -0.11430
C 14.10536 -2.78294 -1.07224
C 12.65160 -3.16159 -1.14778
O 11.89913 -2.97745 -0.17490
O 12.34315 -3.47404 -2.41963
C 10.90884 -3.84586 -2.54741
H 14.61662 4.03668 -2.25566
H 17.77773 4.65582 3.09556
H 18.16634 -1.58702 3.65281
H 13.48160 -0.65526 -3.29088
H 13.22754 2.14972 -3.35885
H 15.50019 0.30426 -3.96668
H 15.98186 1.92136 -3.41235
H 14.99521 1.80118 -4.83774
H 11.62575 1.24437 -1.83725
H 11.52777 -0.51133 -1.44593
H 11.40760 -0.23016 -4.27683
H 10.60688 1.16971 -3.65707
H 14.23150 6.04806 -1.75892
H 15.31313 7.19721 -1.04567
H 13.70868 6.99542 -0.30283
H 15.71887 8.32998 0.83252
H 15.67486 8.79275 2.62992
H 14.35755 7.88057 1.83868
H 18.60648 3.05755 4.90065
H 19.84031 0.47941 4.07144
H 20.70907 3.70776 4.36637
H 20.30032 3.35446 2.65052
H 21.03434 2.15900 3.59271
H 19.31204 1.09320 6.46226
H 18.82281 -0.52216 5.98657
H 17.31046 1.93547 6.49152
H 16.92886 0.27329 7.07147
H 16.54389 0.80354 5.37296
H 16.57605 -4.74084 2.68917
H 17.84537 -3.66148 3.35250
H 17.97778 -4.22397 1.63834
H 14.61986 -2.94282 -2.02056
H 10.87595 -4.84009 -3.00361
H 10.43454 -3.01849 -3.10799
H 10.35131 -4.01398 -1.63344

