%nproc=24
%mem=175gb
#p cam-b3lyp/Def2SVP td=(nstates=5)

TDDFT excited states in gaussian

0 1
Mg 0.00000 0.00000 0.00000
C -0.21700 -2.21800 2.80100
C -1.25500 2.44200 2.02600
C -0.24500 1.85000 -2.56400
C 0.14600 -2.82400 -2.03700
N -0.61700 -0.00900 2.12600
C -0.59400 -0.90800 3.10500
C -0.93600 -0.30900 4.50200
C -1.77300 0.96400 4.03200
C -1.15500 1.16800 2.66000
C -3.26300 0.68500 3.86300
C 0.34500 0.11000 5.29900
C 0.12400 0.39700 6.78700
H 1.16800 0.03300 7.73300
N -0.18500 1.96100 -0.15200
C -0.70300 2.80000 0.77700
C -0.62000 4.15600 0.19300
C -0.18700 4.01500 -1.22500
C -0.21400 2.58300 -1.38000
C -0.88700 5.40600 0.97400
C 0.18100 5.01300 -2.27700
O 0.30300 4.69000 -3.50800
C 0.31000 6.41400 -1.83700
N -0.26500 -0.41300 -2.02900
C -0.27900 0.56900 -2.93700
C -0.19600 0.02400 -4.33200
C 0.12400 -1.53300 -4.18000
C 0.08600 -1.63200 -2.63500
C -1.45100 0.20500 -5.19700
C 1.37300 -2.07000 -4.92300
C 2.62600 -1.49000 -4.30600
N 0.15000 -2.14400 0.30300
C 0.17300 -3.13600 -0.68800
C 0.17300 -4.43800 0.00400
C 0.13300 -4.11100 1.35800
C 0.08300 -2.69500 1.50200
C 0.14900 -5.71500 -0.62300
C 0.09600 -4.62900 2.71600
O 0.20800 -5.74700 3.22100
C -0.25500 -3.42800 3.70100
C 0.71700 -3.48200 4.84800
O 1.93100 -3.25500 4.66900
O 0.03800 -3.55600 6.00300
C 0.94300 -3.58300 7.18300
H -1.85900 3.22000 2.49700
H -0.21800 2.45300 -3.47400
H 0.27600 -3.74700 -2.60500
H -1.55400 -0.94900 5.13200
H -1.58500 1.83100 4.66500
H -3.48400 -0.37700 3.96900
H -3.51100 1.02700 2.85800
H -3.85200 1.30100 4.54300
H 0.66900 1.09600 4.96600
H 1.13000 -0.63900 5.18900
H -0.84400 0.02600 7.12500
H 0.06200 1.47700 6.92100
H -1.34400 5.18600 1.93800
H -1.65100 5.96300 0.43200
H 0.00700 6.02000 1.08400
H -0.63500 6.74400 -1.40500
H 0.66500 6.97000 -2.70400
H 1.04800 6.46600 -1.03600
H 0.60800 0.50100 -4.89100
H -0.69200 -2.15600 -4.54700
H -1.26700 0.74000 -6.12900
H -2.20400 0.71400 -4.59600
H -1.96700 -0.72000 -5.45300
H 1.35600 -1.75900 -5.96700
H 1.45200 -3.15700 -4.90200
H 2.71400 -0.52200 -4.79800
H 3.48700 -2.12100 -4.52900
H 2.49500 -1.30300 -3.24000
H 0.86700 -6.33300 -0.08400
H 0.40400 -5.64200 -1.68000
H -0.89100 -5.99900 -0.46300
H -1.28300 -3.58100 4.02800
H 0.69800 -4.47800 7.75500
H 0.83300 -2.61900 7.68000
H 2.00000 -3.75400 6.97600
Mg 10.51471 0.95371 0.80493
C 11.35807 -1.02170 3.67992
C 8.40397 2.71764 2.82184
C 9.41695 2.41467 -1.78891
C 11.77715 -1.62798 -1.16657
N 10.03080 0.77642 2.95589
C 10.45924 0.02822 3.96137
C 9.95463 0.47837 5.35862
C 8.62816 1.25643 4.89605
C 9.05234 1.64254 3.48055
C 7.40614 0.35820 4.80019
C 10.96414 1.44103 6.07709
C 10.68441 1.67313 7.56358
H 11.81914 1.83547 8.46829
N 9.50305 2.65082 0.61798
C 8.71365 3.23386 1.54437
C 8.18289 4.45141 0.91190
C 8.59223 4.45338 -0.51889
C 9.18188 3.13395 -0.62618
C 7.44069 5.50843 1.67693
C 8.46164 5.46909 -1.61318
O 8.67388 5.16745 -2.84070
C 7.98747 6.80296 -1.21639
N 10.38983 0.38076 -1.18969
C 9.91889 1.22580 -2.12352
C 10.17955 0.70100 -3.51529
C 11.14245 -0.56161 -3.32500
C 11.20245 -0.60388 -1.78227
C 8.94327 0.28256 -4.31084
C 12.47878 -0.55323 -4.11673
C 13.38412 0.53670 -3.58964
N 11.57482 -0.89582 1.15627
C 11.98555 -1.84034 0.19022
C 12.56490 -2.98634 0.92059
C 12.42902 -2.63634 2.27246
C 11.79047 -1.37117 2.37775
C 13.07746 -4.17583 0.33025
C 12.67096 -3.05425 3.63463
O 13.25951 -3.99694 4.16254
C 11.87408 -2.08453 4.60983
C 12.80916 -1.66006 5.70890
O 13.80449 -0.95859 5.45618
O 12.25942 -1.96668 6.89808
C 13.14476 -1.55498 8.01991
H 7.54861 3.18525 3.31029
H 9.15668 2.92443 -2.71943
H 12.28118 -2.42879 -1.71185
H 9.69566 -0.33109 6.03054
H 8.46056 2.14472 5.49955
H 7.65817 -0.68179 4.94530
H 7.00293 0.51493 3.80827
H 6.63369 0.69702 5.49651
H 10.81892 2.46049 5.69717
H 11.97304 1.10027 5.94815
H 9.97196 0.94374 7.96774
H 10.17645 2.63414 7.67517
H 7.14838 5.15358 2.67294
H 6.49045 5.67160 1.15703
H 7.98459 6.45427 1.72426
H 7.01163 6.71386 -0.74493
H 8.04494 7.41406 -2.11923
H 8.66811 7.20478 -0.45752
H 10.68771 1.44260 -4.11936
H 10.65818 -1.49545 -3.64636
H 8.84692 0.81137 -5.27787
H 8.06883 0.45116 -3.69646
H 8.87183 -0.78200 -4.52719
H 12.29430 -0.32176 -5.16865
H 13.00665 -1.50044 -4.08318
H 13.02637 1.42887 -4.11226
H 14.42254 0.32467 -3.83611
H 13.22424 0.69666 -2.51702
H 14.00077 -4.40603 0.84504
H 13.23760 -4.05204 -0.73877
H 12.25936 -4.86847 0.54526
H 11.01617 -2.63818 4.99328
H 13.32261 -2.44591 8.63007
H 12.63282 -0.70431 8.50778
H 14.15859 -1.25989 7.77594

