%nproc=24
%mem=175gb
#p cam-b3lyp/Def2SVP td=(nstates=5)

TDDFT excited states in gaussian

0 1
Mg 0.00000 0.00000 0.00000
C -0.21700 -2.21800 2.80100
C -1.25500 2.44200 2.02600
C -0.24500 1.85000 -2.56400
C 0.14600 -2.82400 -2.03700
N -0.61700 -0.00900 2.12600
C -0.59400 -0.90800 3.10500
C -0.93600 -0.30900 4.50200
C -1.77300 0.96400 4.03200
C -1.15500 1.16800 2.66000
C -3.26300 0.68500 3.86300
C 0.34500 0.11000 5.29900
C 0.12400 0.39700 6.78700
H 1.16800 0.03300 7.73300
N -0.18500 1.96100 -0.15200
C -0.70300 2.80000 0.77700
C -0.62000 4.15600 0.19300
C -0.18700 4.01500 -1.22500
C -0.21400 2.58300 -1.38000
C -0.88700 5.40600 0.97400
C 0.18100 5.01300 -2.27700
O 0.30300 4.69000 -3.50800
C 0.31000 6.41400 -1.83700
N -0.26500 -0.41300 -2.02900
C -0.27900 0.56900 -2.93700
C -0.19600 0.02400 -4.33200
C 0.12400 -1.53300 -4.18000
C 0.08600 -1.63200 -2.63500
C -1.45100 0.20500 -5.19700
C 1.37300 -2.07000 -4.92300
C 2.62600 -1.49000 -4.30600
N 0.15000 -2.14400 0.30300
C 0.17300 -3.13600 -0.68800
C 0.17300 -4.43800 0.00400
C 0.13300 -4.11100 1.35800
C 0.08300 -2.69500 1.50200
C 0.14900 -5.71500 -0.62300
C 0.09600 -4.62900 2.71600
O 0.20800 -5.74700 3.22100
C -0.25500 -3.42800 3.70100
C 0.71700 -3.48200 4.84800
O 1.93100 -3.25500 4.66900
O 0.03800 -3.55600 6.00300
C 0.94300 -3.58300 7.18300
H -1.85900 3.22000 2.49700
H -0.21800 2.45300 -3.47400
H 0.27600 -3.74700 -2.60500
H -1.55400 -0.94900 5.13200
H -1.58500 1.83100 4.66500
H -3.48400 -0.37700 3.96900
H -3.51100 1.02700 2.85800
H -3.85200 1.30100 4.54300
H 0.66900 1.09600 4.96600
H 1.13000 -0.63900 5.18900
H -0.84400 0.02600 7.12500
H 0.06200 1.47700 6.92100
H -1.34400 5.18600 1.93800
H -1.65100 5.96300 0.43200
H 0.00700 6.02000 1.08400
H -0.63500 6.74400 -1.40500
H 0.66500 6.97000 -2.70400
H 1.04800 6.46600 -1.03600
H 0.60800 0.50100 -4.89100
H -0.69200 -2.15600 -4.54700
H -1.26700 0.74000 -6.12900
H -2.20400 0.71400 -4.59600
H -1.96700 -0.72000 -5.45300
H 1.35600 -1.75900 -5.96700
H 1.45200 -3.15700 -4.90200
H 2.71400 -0.52200 -4.79800
H 3.48700 -2.12100 -4.52900
H 2.49500 -1.30300 -3.24000
H 0.86700 -6.33300 -0.08400
H 0.40400 -5.64200 -1.68000
H -0.89100 -5.99900 -0.46300
H -1.28300 -3.58100 4.02800
H 0.69800 -4.47800 7.75500
H 0.83300 -2.61900 7.68000
H 2.00000 -3.75400 6.97600
Mg 15.77352 1.41482 1.20391
C 15.97201 -1.85044 -0.27181
C 14.80832 -0.11447 4.09601
C 15.15503 4.28784 2.40001
C 15.63283 2.71427 -2.02678
N 15.46688 -0.71373 1.72113
C 15.63238 -1.87021 1.09703
C 15.50064 -3.11852 2.01023
C 14.58997 -2.47574 3.16625
C 15.00093 -1.01246 3.01591
C 13.09982 -2.58427 2.88872
C 16.88566 -3.59833 2.57016
C 16.87293 -4.98638 3.21431
H 18.05026 -5.83633 3.05958
N 15.56121 2.00333 3.08729
C 15.18420 1.24612 4.13885
C 15.16030 2.15120 5.29834
C 15.39407 3.53913 4.81491
C 15.35768 3.32866 3.38157
C 15.01081 1.66189 6.70960
C 15.60164 4.84252 5.52505
O 15.54877 5.96304 4.90499
C 15.77573 4.77412 6.98330
N 15.22923 3.21974 0.32734
C 15.07315 4.32968 1.07003
C 14.95400 5.55700 0.19832
C 15.30632 5.06776 -1.28293
C 15.48916 3.55792 -1.01397
C 13.58727 6.24143 0.19637
C 16.43904 5.82889 -2.02474
C 17.76576 5.56582 -1.34947
N 15.98070 0.63030 -0.79851
C 15.85987 1.34402 -2.01098
C 15.96711 0.36023 -3.10783
C 16.12106 -0.87036 -2.45176
C 16.09026 -0.67032 -1.04516
C 15.87024 0.65040 -4.49799
C 16.29197 -2.29444 -2.62924
O 16.47419 -3.03371 -3.59568
C 16.07628 -3.00813 -1.22549
C 17.20293 -3.98381 -1.02250
O 18.37247 -3.58097 -0.89401
O 16.69089 -5.20745 -0.79690
C 17.76947 -6.20787 -0.57863
H 14.28145 -0.47266 4.98088
H 15.04745 5.31411 2.75871
H 15.69683 3.05209 -3.06334
H 14.98899 -3.95988 1.55847
H 14.87170 -2.85217 4.14619
H 12.90123 -2.97176 1.90051
H 12.70837 -1.58021 2.98711
H 12.61300 -3.17542 3.66967
H 17.14953 -2.98827 3.44362
H 17.63871 -3.56093 1.80718
H 15.96094 -5.54516 2.97143
H 16.83188 -4.86498 4.29948
H 14.69205 0.61266 6.73992
H 14.17390 2.21291 7.15213
H 15.90527 1.83403 7.31207
H 14.90337 4.30250 7.42942
H 16.00000 5.79485 7.29903
H 16.63115 4.12574 7.20348
H 15.66802 6.31453 0.49736
H 14.44462 5.16431 -1.95968
H 13.63202 7.30639 0.49289
H 12.92880 5.69070 0.85488
H 13.05240 6.20199 -0.75102
H 16.27061 6.90715 -1.96857
H 16.51767 5.56952 -3.07523
H 17.77073 6.28629 -0.52608
H 18.58866 5.74749 -2.03787
H 17.79122 4.56215 -0.90943
H 16.65406 0.08879 -4.98862
H 15.96529 1.71729 -4.68901
H 14.86059 0.28492 -4.70363
H 15.10549 -3.50433 -1.25599
H 17.61122 -7.01174 -1.30419
H 17.71396 -6.47810 0.49265
H 18.78477 -5.90923 -0.81196

