%nproc=24
%mem=175gb
#p cam-b3lyp/Def2SVP td=(nstates=5)

TDDFT excited states in gaussian

0 1
Mg 0.00000 0.00000 0.00000
C -0.21700 -2.21800 2.80100
C -1.25500 2.44200 2.02600
C -0.24500 1.85000 -2.56400
C 0.14600 -2.82400 -2.03700
N -0.61700 -0.00900 2.12600
C -0.59400 -0.90800 3.10500
C -0.93600 -0.30900 4.50200
C -1.77300 0.96400 4.03200
C -1.15500 1.16800 2.66000
C -3.26300 0.68500 3.86300
C 0.34500 0.11000 5.29900
C 0.12400 0.39700 6.78700
H 1.16800 0.03300 7.73300
N -0.18500 1.96100 -0.15200
C -0.70300 2.80000 0.77700
C -0.62000 4.15600 0.19300
C -0.18700 4.01500 -1.22500
C -0.21400 2.58300 -1.38000
C -0.88700 5.40600 0.97400
C 0.18100 5.01300 -2.27700
O 0.30300 4.69000 -3.50800
C 0.31000 6.41400 -1.83700
N -0.26500 -0.41300 -2.02900
C -0.27900 0.56900 -2.93700
C -0.19600 0.02400 -4.33200
C 0.12400 -1.53300 -4.18000
C 0.08600 -1.63200 -2.63500
C -1.45100 0.20500 -5.19700
C 1.37300 -2.07000 -4.92300
C 2.62600 -1.49000 -4.30600
N 0.15000 -2.14400 0.30300
C 0.17300 -3.13600 -0.68800
C 0.17300 -4.43800 0.00400
C 0.13300 -4.11100 1.35800
C 0.08300 -2.69500 1.50200
C 0.14900 -5.71500 -0.62300
C 0.09600 -4.62900 2.71600
O 0.20800 -5.74700 3.22100
C -0.25500 -3.42800 3.70100
C 0.71700 -3.48200 4.84800
O 1.93100 -3.25500 4.66900
O 0.03800 -3.55600 6.00300
C 0.94300 -3.58300 7.18300
H -1.85900 3.22000 2.49700
H -0.21800 2.45300 -3.47400
H 0.27600 -3.74700 -2.60500
H -1.55400 -0.94900 5.13200
H -1.58500 1.83100 4.66500
H -3.48400 -0.37700 3.96900
H -3.51100 1.02700 2.85800
H -3.85200 1.30100 4.54300
H 0.66900 1.09600 4.96600
H 1.13000 -0.63900 5.18900
H -0.84400 0.02600 7.12500
H 0.06200 1.47700 6.92100
H -1.34400 5.18600 1.93800
H -1.65100 5.96300 0.43200
H 0.00700 6.02000 1.08400
H -0.63500 6.74400 -1.40500
H 0.66500 6.97000 -2.70400
H 1.04800 6.46600 -1.03600
H 0.60800 0.50100 -4.89100
H -0.69200 -2.15600 -4.54700
H -1.26700 0.74000 -6.12900
H -2.20400 0.71400 -4.59600
H -1.96700 -0.72000 -5.45300
H 1.35600 -1.75900 -5.96700
H 1.45200 -3.15700 -4.90200
H 2.71400 -0.52200 -4.79800
H 3.48700 -2.12100 -4.52900
H 2.49500 -1.30300 -3.24000
H 0.86700 -6.33300 -0.08400
H 0.40400 -5.64200 -1.68000
H -0.89100 -5.99900 -0.46300
H -1.28300 -3.58100 4.02800
H 0.69800 -4.47800 7.75500
H 0.83300 -2.61900 7.68000
H 2.00000 -3.75400 6.97600
Mg 10.50514 0.95311 0.80417
C 12.73812 1.57155 3.54468
C 8.25491 -0.20114 3.09301
C 8.69493 -0.01946 -1.61340
C 13.27994 1.06734 -1.30133
N 10.60003 0.76099 3.00562
C 11.47589 1.08554 3.94470
C 10.94148 0.95319 5.39605
C 9.78424 -0.12761 5.12857
C 9.49701 0.18011 3.66041
C 10.26792 -1.56469 5.22960
C 10.35312 2.30159 5.94166
C 10.09733 2.32792 7.45018
H 10.31552 3.57880 8.17140
N 8.57654 0.48821 0.74977
C 7.81377 0.05865 1.77687
C 6.47233 -0.16479 1.21583
C 6.54610 0.01014 -0.26021
C 7.97761 0.14900 -0.43797
C 5.26681 -0.42989 2.07016
C 5.50230 0.03405 -1.33543
O 5.81265 -0.03872 -2.57688
C 4.10159 0.05097 -0.88907
N 10.94651 0.36754 -1.14124
C 9.96795 0.04292 -2.00435
C 10.50002 -0.07621 -3.41257
C 12.00005 0.47514 -3.35316
C 12.11010 0.74631 -1.83666
C 10.49884 -1.48430 -4.00726
C 12.36895 1.61890 -4.33723
C 11.62148 2.87963 -3.96677
N 12.59909 1.44162 1.01577
C 13.59062 1.39917 0.01121
C 14.88185 1.70450 0.66078
C 14.55264 1.88217 2.01302
C 13.15800 1.68052 2.19688
C 16.15010 1.73899 0.01544
C 15.06947 2.18399 3.32850
O 16.16298 2.52982 3.77390
C 13.93766 1.87193 4.39995
C 13.85235 3.04307 5.33998
O 13.47603 4.15563 4.93108
O 14.01836 2.60790 6.60229
C 13.93096 3.73170 7.57248
H 7.56753 -0.79241 3.69865
H 8.09951 -0.24701 -2.50063
H 14.17681 1.21839 -1.90588
H 11.65702 0.56286 6.10978
H 8.90754 0.07317 5.73883
H 11.33971 -1.62163 5.34858
H 9.96365 -2.04298 4.30780
H 9.73524 -2.08633 6.02990
H 9.32525 2.41822 5.57474
H 10.97803 3.12891 5.66661
H 10.59073 1.49551 7.96651
H 9.03211 2.15783 7.62454
H 5.55002 -0.66585 3.10336
H 4.80708 -1.35156 1.69730
H 4.53144 0.37612 2.02271
H 3.90769 -0.82515 -0.27485
H 3.50647 0.15737 -1.79813
H 3.94965 0.92555 -0.24671
H 9.92663 0.53812 -4.09589
H 12.73281 -0.31150 -3.58572
H 9.93352 -1.55714 -4.95552
H 10.09479 -2.16570 -3.27038
H 11.48429 -1.90651 -4.19654
H 12.05749 1.36034 -5.35227
H 13.43190 1.83332 -4.37131
H 10.64595 2.73653 -4.44106
H 12.12872 3.75647 -4.36412
H 11.45674 2.93585 -2.88448
H 16.66540 2.61422 0.38818
H 16.04469 1.76965 -1.06702
H 16.57024 0.79038 0.36025
H 14.21901 0.95286 4.91545
H 14.85392 3.71874 8.16039
H 12.98227 3.57987 8.12083
H 13.94769 4.73965 7.17473

