%nproc=24
%mem=175gb
#p cam-b3lyp/Def2SVP td=(nstates=5)

TDDFT excited states in gaussian

0 1
Mg 0.00000 0.00000 0.00000
C -0.21700 -2.21800 2.80100
C -1.25500 2.44200 2.02600
C -0.24500 1.85000 -2.56400
C 0.14600 -2.82400 -2.03700
N -0.61700 -0.00900 2.12600
C -0.59400 -0.90800 3.10500
C -0.93600 -0.30900 4.50200
C -1.77300 0.96400 4.03200
C -1.15500 1.16800 2.66000
C -3.26300 0.68500 3.86300
C 0.34500 0.11000 5.29900
C 0.12400 0.39700 6.78700
H 1.16800 0.03300 7.73300
N -0.18500 1.96100 -0.15200
C -0.70300 2.80000 0.77700
C -0.62000 4.15600 0.19300
C -0.18700 4.01500 -1.22500
C -0.21400 2.58300 -1.38000
C -0.88700 5.40600 0.97400
C 0.18100 5.01300 -2.27700
O 0.30300 4.69000 -3.50800
C 0.31000 6.41400 -1.83700
N -0.26500 -0.41300 -2.02900
C -0.27900 0.56900 -2.93700
C -0.19600 0.02400 -4.33200
C 0.12400 -1.53300 -4.18000
C 0.08600 -1.63200 -2.63500
C -1.45100 0.20500 -5.19700
C 1.37300 -2.07000 -4.92300
C 2.62600 -1.49000 -4.30600
N 0.15000 -2.14400 0.30300
C 0.17300 -3.13600 -0.68800
C 0.17300 -4.43800 0.00400
C 0.13300 -4.11100 1.35800
C 0.08300 -2.69500 1.50200
C 0.14900 -5.71500 -0.62300
C 0.09600 -4.62900 2.71600
O 0.20800 -5.74700 3.22100
C -0.25500 -3.42800 3.70100
C 0.71700 -3.48200 4.84800
O 1.93100 -3.25500 4.66900
O 0.03800 -3.55600 6.00300
C 0.94300 -3.58300 7.18300
H -1.85900 3.22000 2.49700
H -0.21800 2.45300 -3.47400
H 0.27600 -3.74700 -2.60500
H -1.55400 -0.94900 5.13200
H -1.58500 1.83100 4.66500
H -3.48400 -0.37700 3.96900
H -3.51100 1.02700 2.85800
H -3.85200 1.30100 4.54300
H 0.66900 1.09600 4.96600
H 1.13000 -0.63900 5.18900
H -0.84400 0.02600 7.12500
H 0.06200 1.47700 6.92100
H -1.34400 5.18600 1.93800
H -1.65100 5.96300 0.43200
H 0.00700 6.02000 1.08400
H -0.63500 6.74400 -1.40500
H 0.66500 6.97000 -2.70400
H 1.04800 6.46600 -1.03600
H 0.60800 0.50100 -4.89100
H -0.69200 -2.15600 -4.54700
H -1.26700 0.74000 -6.12900
H -2.20400 0.71400 -4.59600
H -1.96700 -0.72000 -5.45300
H 1.35600 -1.75900 -5.96700
H 1.45200 -3.15700 -4.90200
H 2.71400 -0.52200 -4.79800
H 3.48700 -2.12100 -4.52900
H 2.49500 -1.30300 -3.24000
H 0.86700 -6.33300 -0.08400
H 0.40400 -5.64200 -1.68000
H -0.89100 -5.99900 -0.46300
H -1.28300 -3.58100 4.02800
H 0.69800 -4.47800 7.75500
H 0.83300 -2.61900 7.68000
H 2.00000 -3.75400 6.97600
Mg 7.87462 0.71176 0.60479
C 9.30988 2.81551 3.13330
C 6.98242 -1.43040 3.10474
C 7.00407 -1.37064 -1.62526
C 9.84232 2.40239 -1.72236
N 8.16385 0.79264 2.79615
C 8.66863 1.67041 3.65000
C 8.40465 1.33991 5.14354
C 8.19596 -0.24637 5.00556
C 7.71630 -0.30468 3.55669
C 9.49044 -1.03521 5.11225
C 7.11399 2.04348 5.69234
C 6.96488 2.01636 7.21510
H 6.36321 3.17108 7.87622
N 6.68899 -0.87538 0.72244
C 6.42172 -1.61175 1.82135
C 5.51093 -2.67889 1.37883
C 5.39300 -2.61036 -0.10310
C 6.39562 -1.60738 -0.40122
C 4.79127 -3.58353 2.33651
C 4.53070 -3.33758 -1.08991
O 4.76273 -3.29105 -2.34960
C 3.46353 -4.18079 -0.53167
N 8.50522 0.39386 -1.35062
C 7.92486 -0.54344 -2.12042
C 8.34967 -0.40432 -3.56284
C 9.15122 0.97721 -3.64332
C 9.12676 1.37131 -2.15017
C 9.22383 -1.53223 -4.11062
C 8.66129 2.01518 -4.68987
C 7.29709 2.53689 -4.29980
N 9.17878 2.43415 0.62951
C 9.92443 2.95504 -0.45066
C 10.74807 4.05993 0.08155
C 10.43920 4.09047 1.44982
C 9.50528 3.06315 1.75299
C 11.67223 4.84325 -0.66575
C 10.69887 4.75131 2.70861
O 11.33616 5.74605 3.05227
C 10.07505 3.87403 3.87806
C 9.30066 4.79131 4.78439
O 8.28301 5.37557 4.37253
O 9.76000 4.65894 6.04211
C 9.01556 5.54081 6.98015
H 6.85851 -2.27526 3.78277
H 6.65477 -1.99168 -2.45338
H 10.40857 3.04231 -2.40246
H 9.23388 1.54938 5.80858
H 7.42046 -0.60275 5.67857
H 10.35471 -0.38862 5.14524
H 9.52350 -1.66645 4.23390
H 9.44905 -1.71339 5.96939
H 6.23474 1.45173 5.40689
H 7.05305 3.05524 5.34126
H 7.89785 1.72993 7.71558
H 6.26329 1.22194 7.48097
H 5.20346 -3.50586 3.35014
H 5.01181 -4.61227 2.03169
H 3.70934 -3.43537 2.32367
H 3.90097 -4.93018 0.12372
H 2.89999 -4.54675 -1.39212
H 2.81497 -3.55643 0.09296
H 7.48764 -0.34904 -4.21625
H 10.20686 0.82088 -3.90981
H 8.79613 -2.01994 -5.00688
H 9.38065 -2.25622 -3.32208
H 10.24228 -1.24467 -4.36611
H 8.54438 1.54105 -5.66746
H 9.33876 2.85292 -4.81720
H 6.61953 1.77067 -4.68826
H 7.10896 3.50256 -4.76469
H 7.18066 2.55804 -3.21000
H 11.52403 5.87163 -0.36411
H 11.52571 4.71712 -1.73644
H 12.61597 4.40790 -0.32649
H 10.90060 3.38619 4.39772
H 9.75738 6.16241 7.49103
H 8.40763 4.86306 7.60851
H 8.36702 6.29540 6.55068

