%nproc=24
%mem=175gb
#p cam-b3lyp/Def2SVP td=(nstates=5)

TDDFT excited states in gaussian

0 1
Mg 13.14597 1.17728 1.00321
C 13.35883 -1.74911 -1.06319
C 12.25325 -0.88315 3.57075
C 12.51309 3.76430 2.72779
C 12.92981 3.05802 -1.92284
N 12.87584 -1.01513 1.11559
C 13.04455 -2.03103 0.28262
C 12.94535 -3.43058 0.94669
C 12.04788 -3.03092 2.21700
C 12.43745 -1.55911 2.33818
C 10.55441 -3.10905 1.94724
C 14.34634 -3.98497 1.38476
C 14.36298 -5.46932 1.75648
H 15.54796 -6.25627 1.42635
N 12.96068 1.39811 2.96674
C 12.61257 0.45098 3.86286
C 12.59840 1.12166 5.17212
C 12.80570 2.57923 4.95477
C 12.74578 2.64117 3.50816
C 12.48094 0.37367 6.46832
C 13.00967 3.72916 5.89405
O 12.93128 4.94522 5.49669
C 13.21124 3.39085 7.31052
N 12.56293 3.10584 0.49032
C 12.40640 4.05391 1.43085
C 12.25579 5.42107 0.80749
C 12.58715 5.22441 -0.74464
C 12.79400 3.69402 -0.76733
C 10.88069 6.07188 0.95557
C 13.69639 6.12923 -1.34761
C 15.03846 5.76511 -0.75461
N 13.32645 0.78623 -1.11400
C 13.17445 1.71297 -2.16857
C 13.27409 0.95454 -3.43241
C 13.45559 -0.37478 -3.02196
C 13.44797 -0.44301 -1.60253
C 13.14816 1.49908 -4.74150
C 13.64125 -1.73727 -3.46675
O 13.81513 -2.27888 -4.55770
C 13.46032 -2.70526 -2.21909
C 14.60276 -3.68369 -2.22078
O 15.76925 -3.29363 -2.03704
O 14.11048 -4.93590 -2.22140
C 15.20546 -5.94225 -2.21200
H 11.74722 -1.40949 4.38056
H 12.39909 4.70310 3.27473
H 12.97058 3.58550 -2.87824
H 12.43623 -4.18013 0.35278
H 12.35222 -3.58019 3.10416
H 10.34272 -3.30713 0.90701
H 10.15213 -2.14769 2.23880
H 10.08947 -3.84401 2.61056
H 14.61838 -3.54571 2.35316
H 15.08479 -3.79297 0.63080
H 13.45386 -5.98695 1.42707
H 14.34022 -5.55458 2.84562
H 12.17611 -0.66750 6.30572
H 11.64535 0.81840 7.01955
H 13.38401 0.44377 7.07841
H 12.35322 2.83004 7.67350
H 13.42828 4.33754 7.80906
H 14.07868 2.72632 7.39149
H 12.96550 6.12019 1.23250
H 11.71208 5.43266 -1.37767
H 10.91735 7.06277 1.44635
H 10.24139 5.39688 1.50892
H 10.32913 6.20261 0.02611
H 13.51536 7.17493 -1.08704
H 13.75909 6.07306 -2.42923
H 15.04934 6.31808 0.18942
H 15.84627 6.08589 -1.40927
H 15.08468 4.69717 -0.51163
H 13.92994 1.05214 -5.34115
H 13.22617 2.58423 -4.72992
H 12.13963 1.16274 -4.99647
H 12.49550 -3.20226 -2.32725
H 15.04417 -6.59794 -3.07324
H 15.17297 -6.40973 -1.20993
H 16.21246 -5.58901 -2.40077

