%nproc=24
%mem=175gb
#p cam-b3lyp/Def2SVP td=(nstates=5)

TDDFT excited states in gaussian

0 1
Mg 7.88011 0.71803 0.60465
C 10.06729 0.40138 3.43220
C 5.26944 0.42066 2.77963
C 5.94179 0.54172 -1.90120
C 10.58762 -0.14895 -1.41115
N 7.80550 0.45085 2.79903
C 8.69925 0.40611 3.77553
C 8.09346 0.44508 5.20418
C 6.63195 -0.12527 4.86128
C 6.53978 0.30245 3.39799
C 6.54811 -1.64139 4.92192
C 8.02038 1.90170 5.78292
C 7.72941 1.98383 7.28303
H 8.36228 3.04780 8.05756
N 5.91987 0.99946 0.47499
C 5.01031 0.85695 1.46174
C 3.70551 1.15830 0.85278
C 3.90013 1.32956 -0.61266
C 5.28835 0.93440 -0.74216
C 2.45245 1.33625 1.66001
C 2.98432 1.76334 -1.71688
O 3.29772 1.61142 -2.95039
C 1.67081 2.28531 -1.31225
N 8.15592 0.05848 -1.34760
C 7.16357 0.13922 -2.25129
C 7.67284 -0.13357 -3.64651
C 9.26660 -0.17658 -3.52136
C 9.40522 -0.00226 -1.99303
C 7.17838 -1.42680 -4.29415
C 10.07135 0.77380 -4.44971
C 9.82554 2.21198 -4.05400
N 9.99607 0.39365 0.89715
C 10.94345 0.01263 -0.07824
C 12.22805 -0.19625 0.62077
C 11.93111 0.05739 1.96836
C 10.55376 0.38045 2.10266
C 13.44577 -0.61671 0.01539
C 12.46726 0.11491 3.30923
O 13.59164 0.02163 3.79994
C 11.25630 0.21673 4.33374
C 11.56878 1.31335 5.31471
O 11.64577 2.49586 4.93741
O 11.51004 0.81699 6.56393
C 11.80188 1.86966 7.57316
H 4.38803 0.11036 3.34152
H 5.34208 0.57177 -2.81384
H 11.50156 -0.32500 -1.98246
H 8.58462 -0.19912 5.92359
H 5.86598 0.37007 5.45229
H 7.51775 -2.09289 5.07061
H 6.12800 -1.95093 3.97391
H 5.82788 -1.94886 5.68551
H 7.12389 2.39847 5.39016
H 8.91683 2.44630 5.55836
H 7.85977 1.01574 7.78180
H 6.67007 2.21482 7.41890
H 2.58548 0.98730 2.69148
H 1.70181 0.65880 1.23875
H 2.06801 2.35771 1.62134
H 1.14257 1.52798 -0.73791
H 1.19518 2.62604 -2.23397
H 1.82468 3.13826 -0.64187
H 7.39489 0.66551 -4.32276
H 9.66746 -1.17226 -3.76171
H 6.66612 -1.26265 -5.26096
H 6.52150 -1.92863 -3.59615
H 7.94627 -2.17825 -4.46984
H 9.72932 0.67332 -5.48270
H 11.13903 0.58141 -4.44382
H 8.88656 2.45076 -4.56233
H 10.63602 2.84902 -4.40235
H 9.64796 2.29866 -2.97576
H 14.23094 -0.00291 0.43641
H 13.40440 -0.52292 -1.06779
H 13.47250 -1.66151 0.33622
H 11.15784 -0.75355 4.82203
H 12.62985 1.50254 8.18746
H 10.84187 2.06549 8.08674
H 12.20501 2.80960 7.21476

