%nproc=24
%mem=175gb
#p cam-b3lyp/Def2SVP td=(nstates=5)

TDDFT excited states in gaussian

0 1
Mg 0.00000 0.00000 0.00000
C -0.21700 -2.21800 2.80100
C -1.25500 2.44200 2.02600
C -0.24500 1.85000 -2.56400
C 0.14600 -2.82400 -2.03700
N -0.61700 -0.00900 2.12600
C -0.59400 -0.90800 3.10500
C -0.93600 -0.30900 4.50200
C -1.77300 0.96400 4.03200
C -1.15500 1.16800 2.66000
C -3.26300 0.68500 3.86300
C 0.34500 0.11000 5.29900
C 0.12400 0.39700 6.78700
H 1.16800 0.03300 7.73300
N -0.18500 1.96100 -0.15200
C -0.70300 2.80000 0.77700
C -0.62000 4.15600 0.19300
C -0.18700 4.01500 -1.22500
C -0.21400 2.58300 -1.38000
C -0.88700 5.40600 0.97400
C 0.18100 5.01300 -2.27700
O 0.30300 4.69000 -3.50800
C 0.31000 6.41400 -1.83700
N -0.26500 -0.41300 -2.02900
C -0.27900 0.56900 -2.93700
C -0.19600 0.02400 -4.33200
C 0.12400 -1.53300 -4.18000
C 0.08600 -1.63200 -2.63500
C -1.45100 0.20500 -5.19700
C 1.37300 -2.07000 -4.92300
C 2.62600 -1.49000 -4.30600
N 0.15000 -2.14400 0.30300
C 0.17300 -3.13600 -0.68800
C 0.17300 -4.43800 0.00400
C 0.13300 -4.11100 1.35800
C 0.08300 -2.69500 1.50200
C 0.14900 -5.71500 -0.62300
C 0.09600 -4.62900 2.71600
O 0.20800 -5.74700 3.22100
C -0.25500 -3.42800 3.70100
C 0.71700 -3.48200 4.84800
O 1.93100 -3.25500 4.66900
O 0.03800 -3.55600 6.00300
C 0.94300 -3.58300 7.18300
H -1.85900 3.22000 2.49700
H -0.21800 2.45300 -3.47400
H 0.27600 -3.74700 -2.60500
H -1.55400 -0.94900 5.13200
H -1.58500 1.83100 4.66500
H -3.48400 -0.37700 3.96900
H -3.51100 1.02700 2.85800
H -3.85200 1.30100 4.54300
H 0.66900 1.09600 4.96600
H 1.13000 -0.63900 5.18900
H -0.84400 0.02600 7.12500
H 0.06200 1.47700 6.92100
H -1.34400 5.18600 1.93800
H -1.65100 5.96300 0.43200
H 0.00700 6.02000 1.08400
H -0.63500 6.74400 -1.40500
H 0.66500 6.97000 -2.70400
H 1.04800 6.46600 -1.03600
H 0.60800 0.50100 -4.89100
H -0.69200 -2.15600 -4.54700
H -1.26700 0.74000 -6.12900
H -2.20400 0.71400 -4.59600
H -1.96700 -0.72000 -5.45300
H 1.35600 -1.75900 -5.96700
H 1.45200 -3.15700 -4.90200
H 2.71400 -0.52200 -4.79800
H 3.48700 -2.12100 -4.52900
H 2.49500 -1.30300 -3.24000
H 0.86700 -6.33300 -0.08400
H 0.40400 -5.64200 -1.68000
H -0.89100 -5.99900 -0.46300
H -1.28300 -3.58100 4.02800
H 0.69800 -4.47800 7.75500
H 0.83300 -2.61900 7.68000
H 2.00000 -3.75400 6.97600
Mg 31.53736 2.84371 2.40340
C 30.84373 0.56897 5.09105
C 29.86994 5.22523 4.18740
C 31.73809 4.74145 -0.13150
C 32.12027 0.06300 0.38509
N 30.53173 2.78378 4.37250
C 30.38571 1.88127 5.33088
C 29.78305 2.43535 6.64973
C 29.01324 3.70883 6.04598
C 29.87408 3.95036 4.80772
C 27.59778 3.39593 5.59004
C 30.88797 2.86604 7.67720
C 30.37974 3.12526 9.09716
H 31.24088 2.76717 10.22085
N 31.34089 4.81293 2.25459
C 30.64700 5.62603 3.07840
C 30.79689 6.98127 2.52612
C 31.49857 6.87963 1.21767
C 31.53537 5.44074 1.04937
C 30.36746 8.21405 3.26723
C 32.03486 7.90771 0.26813
O 32.39504 7.60116 -0.92314
C 32.03847 9.29938 0.74220
N 31.67201 2.46276 0.36401
C 31.80102 3.46769 -0.51995
C 32.15607 2.94539 -1.89164
C 32.47747 1.39182 -1.68987
C 32.15179 1.25927 -0.18595
C 31.07914 3.10691 -2.96426
C 33.85703 0.88719 -2.19468
C 34.96369 1.48515 -1.35615
N 31.67902 0.70837 2.70056
C 31.90427 -0.27697 1.71444
C 31.80249 -1.59137 2.38110
C 31.49992 -1.27767 3.71471
C 31.39892 0.13194 3.86406
C 31.93477 -2.85854 1.74636
C 31.23252 -1.81889 5.02783
O 31.26566 -2.94272 5.52747
C 30.67100 -0.65267 5.95034
C 31.41068 -0.69886 7.25926
O 32.62960 -0.45657 7.30532
O 30.52216 -0.80632 8.26393
C 31.20721 -0.84477 9.58342
H 29.17532 5.97993 4.55728
H 31.92344 5.35443 -1.01659
H 32.38566 -0.84862 -0.15453
H 29.07938 1.77389 7.14073
H 29.06787 4.55959 6.72021
H 27.38332 2.33867 5.63856
H 27.53285 3.74868 4.56906
H 26.87801 3.98995 6.16048
H 31.24476 3.87139 7.41889
H 31.68420 2.14776 7.70388
H 29.36629 2.73472 9.24994
H 30.27517 4.20395 9.23678
H 29.73486 7.96581 4.12839
H 29.70687 8.77570 2.59788
H 31.20891 8.85054 3.54922
H 31.02385 9.59710 0.99592
H 32.53977 9.87315 -0.03970
H 32.62269 9.35219 1.66768
H 33.03933 3.43981 -2.27702
H 31.75821 0.75415 -2.22455
H 31.42649 3.67168 -3.84995
H 30.22153 3.59138 -2.51666
H 30.65200 2.17616 -3.33365
H 34.03010 1.22104 -3.22071
H 33.95058 -0.19364 -2.18759
H 35.11520 2.46810 -1.81216
H 35.86396 0.87732 -1.42022
H 34.63142 1.64814 -0.32432
H 32.54649 -3.46998 2.39631
H 32.37688 -2.76330 0.75679
H 30.88599 -3.16375 1.69973
H 29.60127 -0.82253 6.07840
H 30.87538 -1.75676 10.08923
H 30.96769 0.11811 10.07255
H 32.28237 -0.98065 9.58617

