%nproc=24
%mem=175gb
#p cam-b3lyp/Def2SVP td=(nstates=5)

TDDFT excited states in gaussian

0 1
Mg 0.00000 0.00000 0.00000
C -0.21700 -2.21800 2.80100
C -1.25500 2.44200 2.02600
C -0.24500 1.85000 -2.56400
C 0.14600 -2.82400 -2.03700
N -0.61700 -0.00900 2.12600
C -0.59400 -0.90800 3.10500
C -0.93600 -0.30900 4.50200
C -1.77300 0.96400 4.03200
C -1.15500 1.16800 2.66000
C -3.26300 0.68500 3.86300
C 0.34500 0.11000 5.29900
C 0.12400 0.39700 6.78700
H 1.16800 0.03300 7.73300
N -0.18500 1.96100 -0.15200
C -0.70300 2.80000 0.77700
C -0.62000 4.15600 0.19300
C -0.18700 4.01500 -1.22500
C -0.21400 2.58300 -1.38000
C -0.88700 5.40600 0.97400
C 0.18100 5.01300 -2.27700
O 0.30300 4.69000 -3.50800
C 0.31000 6.41400 -1.83700
N -0.26500 -0.41300 -2.02900
C -0.27900 0.56900 -2.93700
C -0.19600 0.02400 -4.33200
C 0.12400 -1.53300 -4.18000
C 0.08600 -1.63200 -2.63500
C -1.45100 0.20500 -5.19700
C 1.37300 -2.07000 -4.92300
C 2.62600 -1.49000 -4.30600
N 0.15000 -2.14400 0.30300
C 0.17300 -3.13600 -0.68800
C 0.17300 -4.43800 0.00400
C 0.13300 -4.11100 1.35800
C 0.08300 -2.69500 1.50200
C 0.14900 -5.71500 -0.62300
C 0.09600 -4.62900 2.71600
O 0.20800 -5.74700 3.22100
C -0.25500 -3.42800 3.70100
C 0.71700 -3.48200 4.84800
O 1.93100 -3.25500 4.66900
O 0.03800 -3.55600 6.00300
C 0.94300 -3.58300 7.18300
H -1.85900 3.22000 2.49700
H -0.21800 2.45300 -3.47400
H 0.27600 -3.74700 -2.60500
H -1.55400 -0.94900 5.13200
H -1.58500 1.83100 4.66500
H -3.48400 -0.37700 3.96900
H -3.51100 1.02700 2.85800
H -3.85200 1.30100 4.54300
H 0.66900 1.09600 4.96600
H 1.13000 -0.63900 5.18900
H -0.84400 0.02600 7.12500
H 0.06200 1.47700 6.92100
H -1.34400 5.18600 1.93800
H -1.65100 5.96300 0.43200
H 0.00700 6.02000 1.08400
H -0.63500 6.74400 -1.40500
H 0.66500 6.97000 -2.70400
H 1.04800 6.46600 -1.03600
H 0.60800 0.50100 -4.89100
H -0.69200 -2.15600 -4.54700
H -1.26700 0.74000 -6.12900
H -2.20400 0.71400 -4.59600
H -1.96700 -0.72000 -5.45300
H 1.35600 -1.75900 -5.96700
H 1.45200 -3.15700 -4.90200
H 2.71400 -0.52200 -4.79800
H 3.48700 -2.12100 -4.52900
H 2.49500 -1.30300 -3.24000
H 0.86700 -6.33300 -0.08400
H 0.40400 -5.64200 -1.68000
H -0.89100 -5.99900 -0.46300
H -1.28300 -3.58100 4.02800
H 0.69800 -4.47800 7.75500
H 0.83300 -2.61900 7.68000
H 2.00000 -3.75400 6.97600
Mg 8.94152 0.79940 0.68458
C 9.14645 -2.36542 -0.99499
C 8.00023 -0.91376 3.47987
C 8.31678 3.58828 2.06271
C 8.77604 2.29901 -2.45700
N 8.64771 -1.35899 1.06835
C 8.81490 -2.47304 0.37173
C 8.69423 -3.77702 1.20519
C 7.78735 -3.21284 2.40441
C 8.19068 -1.74098 2.34430
C 6.29612 -3.31108 2.12882
C 10.08468 -4.28426 1.72612
C 10.08209 -5.71016 2.28160
H 11.26241 -6.54283 2.06714
N 8.73748 1.26708 2.60244
C 8.37008 0.44329 3.60627
C 8.34876 1.27342 4.82060
C 8.57333 2.69018 4.42429
C 8.52956 2.57021 2.98075
C 8.20975 0.69547 6.19903
C 8.77901 3.94728 5.21397
O 8.71738 5.10434 4.66604
C 8.96191 3.78804 6.66404
N 8.38383 2.65321 -0.07352
C 8.22697 3.71339 0.73847
C 8.09709 4.99257 -0.05350
C 8.44303 4.59933 -1.56456
C 8.63439 3.07648 -1.39227
C 6.72724 5.66896 -0.00479
C 9.56790 5.41128 -2.26318
C 10.89973 5.11279 -1.61317
N 9.14065 0.14358 -1.36440
C 9.00948 0.93163 -2.52881
C 9.11487 0.01941 -3.68604
C 9.27830 -1.24928 -3.10966
C 9.25477 -1.13837 -1.69310
C 9.00857 0.39606 -5.05460
C 9.45473 -2.65849 -3.37745
O 9.63472 -3.33452 -4.38953
C 9.25050 -3.46022 -2.02028
C 10.38280 -4.44115 -1.88538
O 11.55120 -4.04140 -1.73823
O 9.87772 -5.67909 -1.73450
C 10.96215 -6.68590 -1.58566
H 7.48017 -1.32957 4.34331
H 8.20656 4.58939 2.48594
H 8.83246 2.70175 -3.47055
H 8.18383 -4.59079 0.70415
H 8.07651 -3.64883 3.35712
H 6.09357 -3.63655 1.11928
H 5.90064 -2.31717 2.29244
H 5.81659 -3.95264 2.87366
H 10.35082 -3.72911 2.63481
H 10.83309 -4.19515 0.96286
H 9.17129 -6.25706 2.00904
H 10.04680 -5.65755 3.37247
H 7.89600 -0.35516 6.16494
H 7.37290 1.21337 6.68000
H 9.10690 0.83376 6.80620
H 8.09434 3.28494 7.08436
H 9.18331 4.78797 7.04220
H 9.82157 3.13134 6.83820
H 8.80935 5.73330 0.28872
H 7.57698 4.73403 -2.22912
H 6.76880 6.71335 0.35799
H 6.07515 5.07459 0.62134
H 6.18704 5.68661 -0.94982
H 9.39483 6.48301 -2.13827
H 9.64160 5.21897 -3.32835
H 10.90617 5.78000 -0.74605
H 11.71775 5.34154 -2.29328
H 10.93237 4.08354 -1.23737
H 9.79210 -0.12964 -5.58396
H 9.09759 1.47332 -5.17855
H 7.99943 0.03925 -5.27728
H 8.28185 -3.95834 -2.07663
H 10.80338 -7.44326 -2.35953
H 10.91413 -7.02334 -0.53324
H 11.97469 -6.36813 -1.80530

