%nproc=24
%mem=175gb
#p cam-b3lyp/Def2SVP td=(nstates=5)

TDDFT excited states in gaussian

0 1
Mg 0.00000 0.00000 0.00000
C -0.21700 -2.21800 2.80100
C -1.25500 2.44200 2.02600
C -0.24500 1.85000 -2.56400
C 0.14600 -2.82400 -2.03700
N -0.61700 -0.00900 2.12600
C -0.59400 -0.90800 3.10500
C -0.93600 -0.30900 4.50200
C -1.77300 0.96400 4.03200
C -1.15500 1.16800 2.66000
C -3.26300 0.68500 3.86300
C 0.34500 0.11000 5.29900
C 0.12400 0.39700 6.78700
H 1.16800 0.03300 7.73300
N -0.18500 1.96100 -0.15200
C -0.70300 2.80000 0.77700
C -0.62000 4.15600 0.19300
C -0.18700 4.01500 -1.22500
C -0.21400 2.58300 -1.38000
C -0.88700 5.40600 0.97400
C 0.18100 5.01300 -2.27700
O 0.30300 4.69000 -3.50800
C 0.31000 6.41400 -1.83700
N -0.26500 -0.41300 -2.02900
C -0.27900 0.56900 -2.93700
C -0.19600 0.02400 -4.33200
C 0.12400 -1.53300 -4.18000
C 0.08600 -1.63200 -2.63500
C -1.45100 0.20500 -5.19700
C 1.37300 -2.07000 -4.92300
C 2.62600 -1.49000 -4.30600
N 0.15000 -2.14400 0.30300
C 0.17300 -3.13600 -0.68800
C 0.17300 -4.43800 0.00400
C 0.13300 -4.11100 1.35800
C 0.08300 -2.69500 1.50200
C 0.14900 -5.71500 -0.62300
C 0.09600 -4.62900 2.71600
O 0.20800 -5.74700 3.22100
C -0.25500 -3.42800 3.70100
C 0.71700 -3.48200 4.84800
O 1.93100 -3.25500 4.66900
O 0.03800 -3.55600 6.00300
C 0.94300 -3.58300 7.18300
H -1.85900 3.22000 2.49700
H -0.21800 2.45300 -3.47400
H 0.27600 -3.74700 -2.60500
H -1.55400 -0.94900 5.13200
H -1.58500 1.83100 4.66500
H -3.48400 -0.37700 3.96900
H -3.51100 1.02700 2.85800
H -3.85200 1.30100 4.54300
H 0.66900 1.09600 4.96600
H 1.13000 -0.63900 5.18900
H -0.84400 0.02600 7.12500
H 0.06200 1.47700 6.92100
H -1.34400 5.18600 1.93800
H -1.65100 5.96300 0.43200
H 0.00700 6.02000 1.08400
H -0.63500 6.74400 -1.40500
H 0.66500 6.97000 -2.70400
H 1.04800 6.46600 -1.03600
H 0.60800 0.50100 -4.89100
H -0.69200 -2.15600 -4.54700
H -1.26700 0.74000 -6.12900
H -2.20400 0.71400 -4.59600
H -1.96700 -0.72000 -5.45300
H 1.35600 -1.75900 -5.96700
H 1.45200 -3.15700 -4.90200
H 2.71400 -0.52200 -4.79800
H 3.48700 -2.12100 -4.52900
H 2.49500 -1.30300 -3.24000
H 0.86700 -6.33300 -0.08400
H 0.40400 -5.64200 -1.68000
H -0.89100 -5.99900 -0.46300
H -1.28300 -3.58100 4.02800
H 0.69800 -4.47800 7.75500
H 0.83300 -2.61900 7.68000
H 2.00000 -3.75400 6.97600
Mg 7.89123 0.70362 0.59567
C 7.89273 1.35854 -2.93280
C 7.36136 -2.57890 -0.16517
C 7.43596 0.16296 3.68886
C 7.27922 4.09946 1.08498
N 7.67397 -0.35102 -1.33637
C 7.75408 -0.00825 -2.61326
C 7.76216 -1.20543 -3.60131
C 7.02414 -2.28829 -2.67307
C 7.40116 -1.73203 -1.30153
C 5.51017 -2.25849 -2.80087
C 9.21602 -1.66348 -3.97346
C 9.30385 -2.61937 -5.16523
H 10.45120 -2.51020 -6.06197
N 7.94942 -0.99203 1.62521
C 7.73206 -2.23788 1.15415
C 7.87061 -3.13544 2.31146
C 8.02469 -2.30265 3.53516
C 7.78321 -0.98271 2.98785
C 7.92879 -4.62968 2.17996
C 8.32534 -2.63982 4.96419
O 8.17753 -1.78101 5.90410
C 8.70819 -4.03169 5.24280
N 7.21643 1.90483 2.15262
C 7.16299 1.43828 3.41255
C 6.91274 2.55513 4.39764
C 7.05051 3.90851 3.55683
C 7.27845 3.31095 2.15100
C 5.55629 2.52960 5.10176
C 8.06031 4.96465 4.08367
C 9.47193 4.44008 3.95124
N 7.81187 2.46541 -0.65247
C 7.51364 3.78493 -0.24750
C 7.46701 4.61508 -1.46861
C 7.72064 3.70935 -2.50968
C 7.89183 2.40307 -1.97693
C 7.16919 6.00611 -1.51798
C 7.87194 3.55942 -3.93913
O 7.91697 4.33410 -4.89390
C 7.86475 2.00877 -4.28817
C 9.01420 1.73697 -5.21952
O 10.18783 1.87617 -4.83245
O 8.54671 1.15216 -6.33747
C 9.65093 0.85293 -7.28772
H 6.96950 -3.58938 -0.28464
H 7.37561 0.05165 4.77397
H 7.19130 5.18529 1.16197
H 7.19533 -1.04748 -4.51099
H 7.44624 -3.28029 -2.81137
H 5.17332 -1.43158 -3.40824
H 5.13152 -2.16536 -1.79141
H 5.14424 -3.21990 -3.17251
H 9.59972 -2.31718 -3.17961
H 9.85101 -0.81567 -4.14269
H 8.36944 -2.65011 -5.73870
H 9.41899 -3.63755 -4.78566
H 7.62346 -4.95756 1.17863
H 7.16142 -5.03937 2.84567
H 8.89980 -5.04012 2.46515
H 7.91183 -4.69718 4.91815
H 8.97006 -4.05624 6.30237
H 9.58994 -4.27911 4.64120
H 7.65826 2.55209 5.18331
H 6.09975 4.45989 3.51354
H 5.63750 2.50884 6.20496
H 5.00263 1.67127 4.74501
H 4.89065 3.35403 4.85186
H 7.89585 5.14775 5.14837
H 7.98810 5.92147 3.57744
H 9.59160 3.82459 4.84787
H 10.18599 5.26104 3.93785
H 9.56603 3.77848 3.08229
H 7.87715 6.45194 -2.20394
H 7.22988 6.46096 -0.53147
H 6.14244 5.97258 -1.89207
H 6.90243 1.78099 -4.74820
H 9.39413 1.33267 -8.23723
H 9.75190 -0.24868 -7.29105
H 10.62034 1.29248 -7.08405

