%nproc=24
%mem=175gb
#p cam-b3lyp/Def2SVP td=(nstates=5)

TDDFT excited states in gaussian

0 1
Mg 13.14600 1.18632 0.99135
C 15.86311 -1.02015 1.78369
C 15.17925 3.77212 1.89365
C 10.64020 3.11571 0.73472
C 11.02000 -1.56273 1.25316
N 15.23140 1.24186 1.72638
C 16.18505 0.34535 1.92926
C 17.58246 0.94995 2.23138
C 17.11002 2.37719 2.79589
C 15.77132 2.49605 2.07033
C 16.84380 2.37445 4.29204
C 18.45880 1.10487 0.93908
C 19.93856 1.39750 1.19680
H 20.92954 0.82492 0.28983
N 13.05893 3.15963 0.79886
C 13.98265 4.05791 1.20025
C 13.43859 5.37879 0.84892
C 12.04593 5.19673 0.35694
C 11.84947 3.78848 0.63680
C 14.25194 6.63857 0.91855
C 11.05056 6.13764 -0.25146
O 9.81651 5.81820 -0.38524
C 11.54368 7.47805 -0.60020
N 11.10083 0.87673 1.20065
C 10.22496 1.87359 0.98379
C 8.80915 1.35199 0.92225
C 8.93899 -0.24184 0.90179
C 10.47058 -0.37291 1.05160
C 7.89449 1.77311 2.07223
C 8.24415 -0.98958 -0.26901
C 8.93595 -0.66294 -1.57289
N 13.38457 -0.94517 1.25190
C 12.36028 -1.91105 1.36135
C 13.01187 -3.20665 1.64293
C 14.37931 -2.89804 1.70105
C 14.56513 -1.50476 1.49191
C 12.34339 -4.44530 1.85502
C 15.70699 -3.43232 1.90232
O 16.17818 -4.56102 2.03551
C 16.71671 -2.21928 2.09042
C 17.91294 -2.47047 1.21380
O 17.79837 -2.47936 -0.02451
O 19.02625 -2.44222 1.96885
C 20.24045 -2.67536 1.14230
H 15.65235 4.63347 2.36602
H 9.74888 3.71772 0.54339
H 10.43392 -2.48424 1.25121
H 18.15241 0.42168 2.98627
H 17.78525 3.16912 2.48242
H 16.90260 1.38043 4.70990
H 15.84712 2.77787 4.41422
H 17.51622 3.07470 4.79585
H 18.17207 2.02886 0.42066
H 18.36550 0.24128 0.30969
H 20.21987 1.21137 2.24043
H 20.10955 2.46804 1.05997
H 15.18614 6.48413 1.47247
H 13.68753 7.35014 1.53092
H 14.42879 7.08063 -0.06429
H 11.93698 7.96132 0.29099
H 10.71131 7.97388 -1.10338
H 12.38270 7.37186 -1.29690
H 8.31674 1.67615 0.01365
H 8.49530 -0.69834 1.79877
H 6.97989 2.29553 1.73362
H 8.46191 2.39916 2.74797
H 7.57011 0.96397 2.72436
H 7.21005 -0.65207 -0.37327
H 8.21997 -2.06649 -0.13991
H 8.48065 0.28897 -1.86211
H 8.74062 -1.43524 -2.31414
H 10.00581 -0.48255 -1.41637
H 12.89431 -5.19497 1.30275
H 11.30503 -4.39682 1.53372
H 12.43338 -4.53203 2.94114
H 16.98491 -2.17707 3.14676
H 20.77062 -3.52394 1.58561
H 20.77390 -1.70662 1.11517
H 20.09585 -3.02370 0.12633

