%nproc=24
%mem=175gb
#p cam-b3lyp/Def2SVP td=(nstates=5)

TDDFT excited states in gaussian

0 1
Mg 0.00000 0.00000 0.00000
C -0.21700 -2.21800 2.80100
C -1.25500 2.44200 2.02600
C -0.24500 1.85000 -2.56400
C 0.14600 -2.82400 -2.03700
N -0.61700 -0.00900 2.12600
C -0.59400 -0.90800 3.10500
C -0.93600 -0.30900 4.50200
C -1.77300 0.96400 4.03200
C -1.15500 1.16800 2.66000
C -3.26300 0.68500 3.86300
C 0.34500 0.11000 5.29900
C 0.12400 0.39700 6.78700
H 1.16800 0.03300 7.73300
N -0.18500 1.96100 -0.15200
C -0.70300 2.80000 0.77700
C -0.62000 4.15600 0.19300
C -0.18700 4.01500 -1.22500
C -0.21400 2.58300 -1.38000
C -0.88700 5.40600 0.97400
C 0.18100 5.01300 -2.27700
O 0.30300 4.69000 -3.50800
C 0.31000 6.41400 -1.83700
N -0.26500 -0.41300 -2.02900
C -0.27900 0.56900 -2.93700
C -0.19600 0.02400 -4.33200
C 0.12400 -1.53300 -4.18000
C 0.08600 -1.63200 -2.63500
C -1.45100 0.20500 -5.19700
C 1.37300 -2.07000 -4.92300
C 2.62600 -1.49000 -4.30600
N 0.15000 -2.14400 0.30300
C 0.17300 -3.13600 -0.68800
C 0.17300 -4.43800 0.00400
C 0.13300 -4.11100 1.35800
C 0.08300 -2.69500 1.50200
C 0.14900 -5.71500 -0.62300
C 0.09600 -4.62900 2.71600
O 0.20800 -5.74700 3.22100
C -0.25500 -3.42800 3.70100
C 0.71700 -3.48200 4.84800
O 1.93100 -3.25500 4.66900
O 0.03800 -3.55600 6.00300
C 0.94300 -3.58300 7.18300
H -1.85900 3.22000 2.49700
H -0.21800 2.45300 -3.47400
H 0.27600 -3.74700 -2.60500
H -1.55400 -0.94900 5.13200
H -1.58500 1.83100 4.66500
H -3.48400 -0.37700 3.96900
H -3.51100 1.02700 2.85800
H -3.85200 1.30100 4.54300
H 0.66900 1.09600 4.96600
H 1.13000 -0.63900 5.18900
H -0.84400 0.02600 7.12500
H 0.06200 1.47700 6.92100
H -1.34400 5.18600 1.93800
H -1.65100 5.96300 0.43200
H 0.00700 6.02000 1.08400
H -0.63500 6.74400 -1.40500
H 0.66500 6.97000 -2.70400
H 1.04800 6.46600 -1.03600
H 0.60800 0.50100 -4.89100
H -0.69200 -2.15600 -4.54700
H -1.26700 0.74000 -6.12900
H -2.20400 0.71400 -4.59600
H -1.96700 -0.72000 -5.45300
H 1.35600 -1.75900 -5.96700
H 1.45200 -3.15700 -4.90200
H 2.71400 -0.52200 -4.79800
H 3.48700 -2.12100 -4.52900
H 2.49500 -1.30300 -3.24000
H 0.86700 -6.33300 -0.08400
H 0.40400 -5.64200 -1.68000
H -0.89100 -5.99900 -0.46300
H -1.28300 -3.58100 4.02800
H 0.69800 -4.47800 7.75500
H 0.83300 -2.61900 7.68000
H 2.00000 -3.75400 6.97600
Mg 15.77267 1.41602 1.20541
C 13.37164 0.48313 3.70418
C 17.03753 3.63735 3.46383
C 17.60481 2.57587 -1.11093
C 13.64993 -0.00421 -1.16579
N 15.19421 1.90455 3.28363
C 14.30539 1.44178 4.14976
C 14.47498 1.98099 5.59547
C 15.24900 3.34591 5.25379
C 15.90025 2.93406 3.93510
C 14.31656 4.51457 4.98149
C 15.34981 1.03259 6.48835
C 15.30160 1.33561 7.98755
H 15.36385 0.21837 8.92583
N 17.41874 2.52048 1.30125
C 17.78621 3.34814 2.30186
C 19.06530 3.94223 1.88333
C 19.34083 3.52341 0.48213
C 18.09478 2.85948 0.15558
C 19.92958 4.74837 2.80885
C 20.52439 3.70328 -0.41956
O 20.45508 3.46556 -1.67715
C 21.74005 4.25481 0.19646
N 15.55314 1.49406 -0.86051
C 16.52226 2.00525 -1.63989
C 16.26508 1.70542 -3.09740
C 15.04286 0.67418 -3.11473
C 14.73353 0.62295 -1.60242
C 15.92641 2.91038 -3.97476
C 15.26278 -0.66519 -3.86999
C 16.29067 -1.50376 -3.14500
N 13.95052 0.25576 1.24557
C 13.21414 -0.21454 0.13622
C 11.99082 -0.85240 0.66447
C 12.08996 -0.68730 2.05422
C 13.28038 0.02237 2.36847
C 10.95317 -1.43549 -0.11617
C 11.45300 -0.94267 3.32613
O 10.46560 -1.57969 3.69081
C 12.19158 -0.08537 4.44234
C 12.46649 -0.98710 5.61444
O 13.25444 -1.94304 5.50530
O 11.92631 -0.44704 6.72210
C 12.18198 -1.29967 7.91352
H 17.36490 4.52121 4.01200
H 18.25523 2.85782 -1.94215
H 12.98596 -0.55653 -1.83419
H 13.54720 2.19866 6.11086
H 16.00701 3.56770 6.00050
H 13.28251 4.20529 4.94660
H 14.62300 4.91886 4.02562
H 14.48532 5.30987 5.71316
H 16.41075 1.23239 6.29030
H 15.09231 0.00517 6.31889
H 14.47495 2.00864 8.24568
H 16.19903 1.89779 8.25699
H 19.38991 5.02731 3.72228
H 20.12969 5.70255 2.30950
H 20.88050 4.25907 3.03021
H 21.51664 5.22741 0.62842
H 22.50247 4.22545 -0.58439
H 22.03865 3.60339 1.02537
H 17.12777 1.23561 -3.55365
H 14.15511 1.10265 -3.60273
H 16.61088 3.02949 -4.83580
H 15.93672 3.79732 -3.35527
H 14.91414 2.92007 -4.37527
H 15.66509 -0.47547 -4.86814
H 14.35449 -1.24542 -3.99379
H 17.24003 -1.09999 -3.50940
H 16.18195 -2.55424 -3.40714
H 16.25078 -1.32743 -2.06382
H 10.68659 -2.36661 0.36597
H 11.27136 -1.59605 -1.14415
H 10.19014 -0.65627 -0.03960
H 11.53341 0.74266 4.70837
H 11.20870 -1.52314 8.36126
H 12.90463 -0.73705 8.53399
H 12.56996 -2.29695 7.74220

