%nproc=24
%mem=175gb
#p cam-b3lyp/Def2SVP td=(nstates=5)

TDDFT excited states in gaussian

0 1
Mg 0.00000 0.00000 0.00000
C -0.21700 -2.21800 2.80100
C -1.25500 2.44200 2.02600
C -0.24500 1.85000 -2.56400
C 0.14600 -2.82400 -2.03700
N -0.61700 -0.00900 2.12600
C -0.59400 -0.90800 3.10500
C -0.93600 -0.30900 4.50200
C -1.77300 0.96400 4.03200
C -1.15500 1.16800 2.66000
C -3.26300 0.68500 3.86300
C 0.34500 0.11000 5.29900
C 0.12400 0.39700 6.78700
H 1.16800 0.03300 7.73300
N -0.18500 1.96100 -0.15200
C -0.70300 2.80000 0.77700
C -0.62000 4.15600 0.19300
C -0.18700 4.01500 -1.22500
C -0.21400 2.58300 -1.38000
C -0.88700 5.40600 0.97400
C 0.18100 5.01300 -2.27700
O 0.30300 4.69000 -3.50800
C 0.31000 6.41400 -1.83700
N -0.26500 -0.41300 -2.02900
C -0.27900 0.56900 -2.93700
C -0.19600 0.02400 -4.33200
C 0.12400 -1.53300 -4.18000
C 0.08600 -1.63200 -2.63500
C -1.45100 0.20500 -5.19700
C 1.37300 -2.07000 -4.92300
C 2.62600 -1.49000 -4.30600
N 0.15000 -2.14400 0.30300
C 0.17300 -3.13600 -0.68800
C 0.17300 -4.43800 0.00400
C 0.13300 -4.11100 1.35800
C 0.08300 -2.69500 1.50200
C 0.14900 -5.71500 -0.62300
C 0.09600 -4.62900 2.71600
O 0.20800 -5.74700 3.22100
C -0.25500 -3.42800 3.70100
C 0.71700 -3.48200 4.84800
O 1.93100 -3.25500 4.66900
O 0.03800 -3.55600 6.00300
C 0.94300 -3.58300 7.18300
H -1.85900 3.22000 2.49700
H -0.21800 2.45300 -3.47400
H 0.27600 -3.74700 -2.60500
H -1.55400 -0.94900 5.13200
H -1.58500 1.83100 4.66500
H -3.48400 -0.37700 3.96900
H -3.51100 1.02700 2.85800
H -3.85200 1.30100 4.54300
H 0.66900 1.09600 4.96600
H 1.13000 -0.63900 5.18900
H -0.84400 0.02600 7.12500
H 0.06200 1.47700 6.92100
H -1.34400 5.18600 1.93800
H -1.65100 5.96300 0.43200
H 0.00700 6.02000 1.08400
H -0.63500 6.74400 -1.40500
H 0.66500 6.97000 -2.70400
H 1.04800 6.46600 -1.03600
H 0.60800 0.50100 -4.89100
H -0.69200 -2.15600 -4.54700
H -1.26700 0.74000 -6.12900
H -2.20400 0.71400 -4.59600
H -1.96700 -0.72000 -5.45300
H 1.35600 -1.75900 -5.96700
H 1.45200 -3.15700 -4.90200
H 2.71400 -0.52200 -4.79800
H 3.48700 -2.12100 -4.52900
H 2.49500 -1.30300 -3.24000
H 0.86700 -6.33300 -0.08400
H 0.40400 -5.64200 -1.68000
H -0.89100 -5.99900 -0.46300
H -1.28300 -3.58100 4.02800
H 0.69800 -4.47800 7.75500
H 0.83300 -2.61900 7.68000
H 2.00000 -3.75400 6.97600
Mg 7.88666 0.70343 0.60662
C 5.19407 0.97545 2.96353
C 9.93231 1.97092 3.02392
C 10.18035 0.89966 -1.57693
C 5.48253 0.55472 -1.91206
N 7.49644 1.35061 2.68536
C 6.44656 1.35025 3.49289
C 6.77139 1.69850 4.97031
C 8.12484 2.52865 4.72971
C 8.57204 1.89153 3.41565
C 7.88717 4.00966 4.48590
C 7.02904 0.42019 5.84298
C 7.04663 0.66548 7.35337
H 6.50962 -0.36923 8.23285
N 9.85249 0.87168 0.82058
C 10.51475 1.38953 1.87628
C 11.94350 1.30333 1.53658
C 12.06343 0.84404 0.12612
C 10.67272 0.87461 -0.28020
C 13.03430 1.56443 2.53428
C 13.23703 0.45546 -0.72113
O 13.13421 0.31714 -1.99122
C 14.53045 0.33289 -0.03298
N 7.85076 0.93727 -1.45890
C 8.98920 0.93870 -2.17437
C 8.70362 0.84257 -3.65409
C 7.13927 0.53132 -3.77041
C 6.75724 0.59244 -2.27518
C 9.03753 2.08585 -4.47819
C 6.73051 -0.72518 -4.58698
C 7.18454 -1.97653 -3.87048
N 5.73215 0.56753 0.51901
C 4.92538 0.54378 -0.63972
C 3.51805 0.56157 -0.19080
C 3.60445 0.61812 1.20842
C 4.96920 0.65482 1.60288
C 2.37461 0.57524 -1.03843
C 2.85139 0.66585 2.44103
O 1.66022 0.57508 2.73533
C 3.84590 1.02698 3.62716
C 3.58520 0.07136 4.75912
O 3.82074 -1.14273 4.62828
O 3.30898 0.77307 5.87343
C 3.05397 -0.13084 7.02657
H 10.61251 2.57035 3.62965
H 10.93268 0.85601 -2.36786
H 4.67432 0.41151 -2.63245
H 6.03499 2.32246 5.46241
H 8.85177 2.33493 5.51419
H 6.83582 4.23972 4.39711
H 8.40462 4.24287 3.56454
H 8.37548 4.60296 5.26429
H 8.06459 0.08804 5.69451
H 6.31914 -0.34952 5.61014
H 6.63255 1.64642 7.61651
H 8.08669 0.71598 7.68464
H 12.64402 2.04300 3.44096
H 13.69715 2.31704 2.09373
H 13.61797 0.67040 2.76388
H 14.77823 1.27946 0.44143
H 15.22806 -0.03875 -0.78604
H 14.43062 -0.40527 0.77061
H 9.25837 0.02774 -4.10288
H 6.59691 1.34928 -4.26702
H 9.74300 1.88411 -5.30626
H 9.43777 2.83914 -3.81268
H 8.17971 2.59502 -4.91418
H 7.23101 -0.72485 -5.55840
H 5.66390 -0.79043 -4.77428
H 8.23018 -2.07148 -4.17823
H 6.59901 -2.83564 -4.19162
H 7.17243 -1.83408 -2.78365
H 1.66571 -0.12457 -0.61625
H 2.63469 0.31059 -2.06121
H 2.07771 1.62359 -0.94854
H 3.65333 2.06191 3.91252
H 2.06937 0.13104 7.42616
H 3.92120 -0.00560 7.70182
H 2.92331 -1.18603 6.81694

