%nproc=24
%mem=175gb
#p cam-b3lyp/Def2SVP td=(nstates=5)

TDDFT excited states in gaussian

0 1
Mg 0.00000 0.00000 0.00000
C -0.21700 -2.21800 2.80100
C -1.25500 2.44200 2.02600
C -0.24500 1.85000 -2.56400
C 0.14600 -2.82400 -2.03700
N -0.61700 -0.00900 2.12600
C -0.59400 -0.90800 3.10500
C -0.93600 -0.30900 4.50200
C -1.77300 0.96400 4.03200
C -1.15500 1.16800 2.66000
C -3.26300 0.68500 3.86300
C 0.34500 0.11000 5.29900
C 0.12400 0.39700 6.78700
H 1.16800 0.03300 7.73300
N -0.18500 1.96100 -0.15200
C -0.70300 2.80000 0.77700
C -0.62000 4.15600 0.19300
C -0.18700 4.01500 -1.22500
C -0.21400 2.58300 -1.38000
C -0.88700 5.40600 0.97400
C 0.18100 5.01300 -2.27700
O 0.30300 4.69000 -3.50800
C 0.31000 6.41400 -1.83700
N -0.26500 -0.41300 -2.02900
C -0.27900 0.56900 -2.93700
C -0.19600 0.02400 -4.33200
C 0.12400 -1.53300 -4.18000
C 0.08600 -1.63200 -2.63500
C -1.45100 0.20500 -5.19700
C 1.37300 -2.07000 -4.92300
C 2.62600 -1.49000 -4.30600
N 0.15000 -2.14400 0.30300
C 0.17300 -3.13600 -0.68800
C 0.17300 -4.43800 0.00400
C 0.13300 -4.11100 1.35800
C 0.08300 -2.69500 1.50200
C 0.14900 -5.71500 -0.62300
C 0.09600 -4.62900 2.71600
O 0.20800 -5.74700 3.22100
C -0.25500 -3.42800 3.70100
C 0.71700 -3.48200 4.84800
O 1.93100 -3.25500 4.66900
O 0.03800 -3.55600 6.00300
C 0.94300 -3.58300 7.18300
H -1.85900 3.22000 2.49700
H -0.21800 2.45300 -3.47400
H 0.27600 -3.74700 -2.60500
H -1.55400 -0.94900 5.13200
H -1.58500 1.83100 4.66500
H -3.48400 -0.37700 3.96900
H -3.51100 1.02700 2.85800
H -3.85200 1.30100 4.54300
H 0.66900 1.09600 4.96600
H 1.13000 -0.63900 5.18900
H -0.84400 0.02600 7.12500
H 0.06200 1.47700 6.92100
H -1.34400 5.18600 1.93800
H -1.65100 5.96300 0.43200
H 0.00700 6.02000 1.08400
H -0.63500 6.74400 -1.40500
H 0.66500 6.97000 -2.70400
H 1.04800 6.46600 -1.03600
H 0.60800 0.50100 -4.89100
H -0.69200 -2.15600 -4.54700
H -1.26700 0.74000 -6.12900
H -2.20400 0.71400 -4.59600
H -1.96700 -0.72000 -5.45300
H 1.35600 -1.75900 -5.96700
H 1.45200 -3.15700 -4.90200
H 2.71400 -0.52200 -4.79800
H 3.48700 -2.12100 -4.52900
H 2.49500 -1.30300 -3.24000
H 0.86700 -6.33300 -0.08400
H 0.40400 -5.64200 -1.68000
H -0.89100 -5.99900 -0.46300
H -1.28300 -3.58100 4.02800
H 0.69800 -4.47800 7.75500
H 0.83300 -2.61900 7.68000
H 2.00000 -3.75400 6.97600
Mg 13.13704 1.19150 1.00396
C 15.16973 0.42960 3.86172
C 10.47447 1.35903 3.12935
C 11.24994 1.41796 -1.53671
C 15.67319 -0.13998 -0.98119
N 12.97031 0.91202 3.19173
C 13.82034 0.68636 4.18212
C 13.20449 0.81817 5.60090
C 11.66902 0.53743 5.22357
C 11.68763 0.99555 3.76671
C 11.30114 -0.93666 5.25606
C 13.39449 2.25424 6.20392
C 13.09450 2.36829 7.70016
H 13.90027 3.28336 8.50382
N 11.26731 1.83795 0.84648
C 10.32786 1.85486 1.81520
C 9.11501 2.40454 1.18989
C 9.36722 2.55695 -0.26884
C 10.65897 1.90993 -0.38203
C 7.90187 2.80325 1.97903
C 8.57101 3.17064 -1.38043
O 8.87466 2.98006 -2.61100
C 7.37097 3.92427 -0.98871
N 13.32277 0.51962 -0.95472
C 12.38122 0.79813 -1.87333
C 12.85776 0.45433 -3.26442
C 14.41238 0.11094 -3.11338
C 14.55101 0.23444 -1.58011
C 12.14242 -0.71368 -3.94295
C 15.39927 0.90629 -4.01122
C 15.41979 2.35930 -3.59440
N 15.14841 0.47131 1.32609
C 16.02661 -0.06702 0.36014
C 17.23517 -0.52337 1.07677
C 16.96450 -0.23760 2.42345
C 15.66981 0.33651 2.54035
C 18.36414 -1.15646 0.48454
C 17.47533 -0.30082 3.77392
O 18.55234 -0.61059 4.28167
C 16.28496 0.01213 4.77964
C 16.77811 1.01651 5.78489
O 17.08297 2.16874 5.42984
O 16.60267 0.52237 7.02401
C 17.06676 1.48707 8.05638
H 9.53958 1.21189 3.67084
H 10.68465 1.57306 -2.45859
H 16.54900 -0.47645 -1.54013
H 13.55181 0.08305 6.31696
H 10.99802 1.15940 5.81032
H 12.16576 -1.56432 5.41298
H 10.84924 -1.14831 4.29584
H 10.52108 -1.11416 6.00194
H 12.61501 2.91609 5.80503
H 14.38142 2.62388 6.00404
H 13.03111 1.38598 8.18390
H 12.09481 2.79221 7.82232
H 7.94669 2.42093 3.00627
H 7.04596 2.28490 1.53339
H 7.71666 3.87918 1.95194
H 6.69883 3.27158 -0.43673
H 6.98599 4.36130 -1.91211
H 7.66881 4.72354 -0.30092
H 12.74802 1.30090 -3.93104
H 14.62405 -0.93881 -3.36450
H 11.68923 -0.44254 -4.91515
H 11.38941 -1.09303 -3.26500
H 12.75907 -1.59343 -4.11898
H 15.06495 0.88650 -5.05141
H 16.41159 0.51671 -3.99086
H 14.55248 2.77738 -4.11409
H 16.34208 2.83762 -3.91784
H 15.24034 2.46250 -2.51792
H 19.24202 -0.70711 0.92941
H 18.36250 -1.04123 -0.59735
H 18.18810 -2.19213 0.78730
H 15.99664 -0.92921 5.24904
H 17.79888 0.96229 8.67790
H 16.15055 1.85245 8.55719
H 17.64602 2.33954 7.72141

