%nproc=24
%mem=175gb
#p cam-b3lyp/Def2SVP td=(nstates=5)

TDDFT excited states in gaussian

0 1
Mg 0.00000 0.00000 0.00000
C -0.21700 -2.21800 2.80100
C -1.25500 2.44200 2.02600
C -0.24500 1.85000 -2.56400
C 0.14600 -2.82400 -2.03700
N -0.61700 -0.00900 2.12600
C -0.59400 -0.90800 3.10500
C -0.93600 -0.30900 4.50200
C -1.77300 0.96400 4.03200
C -1.15500 1.16800 2.66000
C -3.26300 0.68500 3.86300
C 0.34500 0.11000 5.29900
C 0.12400 0.39700 6.78700
H 1.16800 0.03300 7.73300
N -0.18500 1.96100 -0.15200
C -0.70300 2.80000 0.77700
C -0.62000 4.15600 0.19300
C -0.18700 4.01500 -1.22500
C -0.21400 2.58300 -1.38000
C -0.88700 5.40600 0.97400
C 0.18100 5.01300 -2.27700
O 0.30300 4.69000 -3.50800
C 0.31000 6.41400 -1.83700
N -0.26500 -0.41300 -2.02900
C -0.27900 0.56900 -2.93700
C -0.19600 0.02400 -4.33200
C 0.12400 -1.53300 -4.18000
C 0.08600 -1.63200 -2.63500
C -1.45100 0.20500 -5.19700
C 1.37300 -2.07000 -4.92300
C 2.62600 -1.49000 -4.30600
N 0.15000 -2.14400 0.30300
C 0.17300 -3.13600 -0.68800
C 0.17300 -4.43800 0.00400
C 0.13300 -4.11100 1.35800
C 0.08300 -2.69500 1.50200
C 0.14900 -5.71500 -0.62300
C 0.09600 -4.62900 2.71600
O 0.20800 -5.74700 3.22100
C -0.25500 -3.42800 3.70100
C 0.71700 -3.48200 4.84800
O 1.93100 -3.25500 4.66900
O 0.03800 -3.55600 6.00300
C 0.94300 -3.58300 7.18300
H -1.85900 3.22000 2.49700
H -0.21800 2.45300 -3.47400
H 0.27600 -3.74700 -2.60500
H -1.55400 -0.94900 5.13200
H -1.58500 1.83100 4.66500
H -3.48400 -0.37700 3.96900
H -3.51100 1.02700 2.85800
H -3.85200 1.30100 4.54300
H 0.66900 1.09600 4.96600
H 1.13000 -0.63900 5.18900
H -0.84400 0.02600 7.12500
H 0.06200 1.47700 6.92100
H -1.34400 5.18600 1.93800
H -1.65100 5.96300 0.43200
H 0.00700 6.02000 1.08400
H -0.63500 6.74400 -1.40500
H 0.66500 6.97000 -2.70400
H 1.04800 6.46600 -1.03600
H 0.60800 0.50100 -4.89100
H -0.69200 -2.15600 -4.54700
H -1.26700 0.74000 -6.12900
H -2.20400 0.71400 -4.59600
H -1.96700 -0.72000 -5.45300
H 1.35600 -1.75900 -5.96700
H 1.45200 -3.15700 -4.90200
H 2.71400 -0.52200 -4.79800
H 3.48700 -2.12100 -4.52900
H 2.49500 -1.30300 -3.24000
H 0.86700 -6.33300 -0.08400
H 0.40400 -5.64200 -1.68000
H -0.89100 -5.99900 -0.46300
H -1.28300 -3.58100 4.02800
H 0.69800 -4.47800 7.75500
H 0.83300 -2.61900 7.68000
H 2.00000 -3.75400 6.97600
Mg 31.52399 2.84230 2.40049
C 29.27286 0.08918 1.91897
C 29.24114 4.79705 0.78737
C 33.66883 5.18047 2.40772
C 34.05258 0.50239 2.92655
N 29.54917 2.38682 1.51455
C 28.76889 1.31873 1.44605
C 27.33952 1.59972 0.90984
C 27.65362 2.93624 0.07682
C 28.86986 3.43054 0.85727
C 28.08296 2.66567 -1.35559
C 26.31085 1.87028 2.06338
C 24.84221 1.84615 1.63413
H 23.85270 1.31600 2.56809
N 31.29321 4.79752 2.15062
C 30.29644 5.42116 1.48820
C 30.59432 6.85923 1.57421
C 31.93467 7.02404 2.19952
C 32.36935 5.64289 2.25919
C 29.61487 7.91921 1.16125
C 32.70392 8.22689 2.65516
O 33.94904 8.15742 2.95125
C 31.98022 9.50664 2.65496
N 33.60288 2.84857 2.42312
C 34.29018 4.00298 2.47669
C 35.75216 3.75466 2.76195
C 35.86039 2.20214 3.13011
C 34.39205 1.78381 2.89695
C 36.71650 4.07510 1.62013
C 36.52373 1.84559 4.48861
C 35.64941 2.31534 5.62892
N 31.63716 0.69472 2.60820
C 32.79998 -0.08385 2.79728
C 32.38488 -1.50128 2.76511
C 31.00187 -1.44910 2.53475
C 30.58779 -0.09536 2.41056
C 33.25037 -2.62457 2.88859
C 29.79985 -2.23175 2.35780
O 29.52044 -3.42669 2.44608
C 28.64771 -1.27501 1.82526
C 27.41194 -1.53699 2.64181
O 27.38728 -1.26677 3.85548
O 26.39845 -1.85744 1.81688
C 25.14793 -2.11558 2.57937
H 28.70054 5.44700 0.09875
H 34.43316 5.95195 2.52642
H 34.76579 -0.28475 3.18036
H 26.94295 0.83595 0.25169
H 26.83687 3.64946 0.15172
H 28.22043 1.61102 -1.54259
H 29.01553 3.19822 -1.48875
H 27.37412 3.11996 -2.05379
H 26.39652 2.91735 2.38124
H 26.46109 1.18639 2.87601
H 24.71041 1.40051 0.64066
H 24.49900 2.87651 1.51337
H 28.78213 7.49547 0.58645
H 30.13158 8.57225 0.44962
H 29.26513 8.52054 2.00312
H 31.62135 9.71842 1.65056
H 32.66760 10.23114 3.09596
H 31.09386 9.40741 3.29146
H 36.08583 4.34088 3.60937
H 36.46484 1.65031 2.39529
H 37.49910 4.80475 1.90156
H 36.14113 4.43983 0.77961
H 37.22901 3.21466 1.19329
H 37.47758 2.36847 4.59311
H 36.72280 0.78572 4.60710
H 35.92216 3.37001 5.73074
H 35.87374 1.76015 6.53748
H 34.58891 2.27412 5.35453
H 32.75933 -3.32458 3.55143
H 34.22730 -2.33382 3.26919
H 33.29644 -2.95081 1.84613
H 28.49610 -1.50120 0.76912
H 24.80343 -3.11576 2.29892
H 24.47611 -1.26793 2.34722
H 25.22836 -2.21366 3.65564

