%nproc=24
%mem=175gb
#p cam-b3lyp/Def2SVP td=(nstates=5)

TDDFT excited states in gaussian

0 1
Mg 31.53641 2.84625 2.40181
C 32.37977 0.87084 5.27680
C 29.42567 4.61017 4.41873
C 30.43866 4.30720 -0.19202
C 32.79885 0.26455 0.43032
N 31.05251 2.66895 4.55278
C 31.48094 1.92075 5.55826
C 30.97634 2.37091 6.95550
C 29.64986 3.14896 6.49294
C 30.07404 3.53508 5.07743
C 28.42784 2.25073 6.39707
C 31.98584 3.33356 7.67398
C 31.70612 3.56567 9.16046
H 32.84085 3.72801 10.06518
N 30.52476 4.54336 2.21487
C 29.73536 5.12640 3.14125
C 29.20460 6.34395 2.50878
C 29.61394 6.34591 1.07800
C 30.20359 5.02649 0.97070
C 28.46239 7.40097 3.27381
C 29.48334 7.36163 -0.01630
O 29.69558 7.05998 -1.24381
C 29.00917 8.69549 0.38050
N 31.41154 2.27330 0.40720
C 30.94059 3.11833 -0.52664
C 31.20125 2.59353 -1.91841
C 32.16416 1.33092 -1.72812
C 32.22415 1.28866 -0.18539
C 29.96497 2.17509 -2.71396
C 33.50049 1.33931 -2.51984
C 34.40582 2.42923 -1.99275
N 32.59652 0.99672 2.75316
C 33.00725 0.05219 1.78710
C 33.58660 -1.09381 2.51748
C 33.45073 -0.74381 3.86934
C 32.81218 0.52137 3.97463
C 34.09917 -2.28330 1.92713
C 33.69266 -1.16172 5.23151
O 34.28121 -2.10440 5.75942
C 32.89578 -0.19199 6.20671
C 33.83087 0.23247 7.30579
O 34.82620 0.93394 7.05306
O 33.28113 -0.07415 8.49496
C 34.16646 0.33755 9.61679
H 28.57031 5.07778 4.90718
H 30.17838 4.81696 -1.12255
H 33.30289 -0.53625 -0.11497
H 30.71737 1.56144 7.62743
H 29.48226 4.03726 7.09643
H 28.67987 1.21075 6.54219
H 28.02463 2.40746 5.40515
H 27.65540 2.58955 7.09339
H 31.84062 4.35303 7.29405
H 32.99474 2.99281 7.54504
H 30.99367 2.83627 9.56462
H 31.19816 4.52668 9.27206
H 28.17009 7.04611 4.26982
H 27.51216 7.56413 2.75391
H 29.00629 8.34680 3.32114
H 28.03334 8.60639 0.85195
H 29.06664 9.30660 -0.52234
H 29.68981 9.09732 1.13937
H 31.70942 3.33514 -2.52247
H 31.67989 0.39708 -2.04947
H 29.86862 2.70391 -3.68098
H 29.09053 2.34370 -2.09958
H 29.89354 1.11053 -2.93031
H 33.31600 1.57077 -3.57177
H 34.02836 0.39209 -2.48630
H 34.04808 3.32141 -2.51537
H 35.44425 2.21720 -2.23923
H 34.24594 2.58920 -0.92014
H 35.02248 -2.51350 2.44192
H 34.25931 -2.15951 0.85811
H 33.28107 -2.97594 2.14215
H 32.03787 -0.74564 6.59016
H 34.34431 -0.55338 10.22695
H 33.65452 1.18823 10.10467
H 35.18029 0.63265 9.37283

