%nproc=24
%mem=175gb
#p cam-b3lyp/Def2SVP td=(nstates=5)

TDDFT excited states in gaussian

0 1
Mg 7.88741 0.71686 0.60538
C 8.58679 -1.32244 3.47438
C 5.87915 2.59971 2.61941
C 6.90003 2.25729 -1.98683
C 8.99737 -1.92900 -1.37279
N 7.37981 0.55931 2.75242
C 7.75402 -0.21952 3.75628
C 7.26995 0.25431 5.15297
C 5.99796 1.11665 4.68682
C 6.45447 1.48258 3.27602
C 4.72250 0.29759 4.57873
C 8.33346 1.14784 5.88274
C 8.05955 1.38945 7.36879
H 9.19653 1.47542 8.28112
N 6.98568 2.47519 0.42180
C 6.22870 3.10198 1.34667
C 5.77955 4.35375 0.71779
C 6.19719 4.33730 -0.71050
C 6.70336 2.98396 -0.82157
C 5.10049 5.45143 1.48421
C 6.13760 5.36483 -1.79993
O 6.33816 5.05674 -3.02781
C 5.74577 6.72383 -1.39860
N 7.73929 0.16315 -1.39307
C 7.32830 1.04093 -2.32501
C 7.56418 0.50792 -3.71809
C 8.44456 -0.81373 -3.52905
C 8.49209 -0.86761 -1.98625
C 6.30906 0.17219 -4.52327
C 9.78372 -0.88538 -4.31275
C 10.75248 0.14270 -3.77427
N 8.82689 -1.19749 0.95281
C 9.18347 -2.16101 -0.01599
C 9.68500 -3.34493 0.71148
C 9.56291 -2.99403 2.06442
C 9.00454 -1.69174 2.17290
C 10.12545 -4.56127 0.11764
C 9.76952 -3.43332 3.42569
O 10.29430 -4.41387 3.95187
C 9.02909 -2.42040 4.40147
C 9.98210 -2.06126 5.50841
O 11.02114 -1.42252 5.26549
O 9.40670 -2.33879 6.69258
C 10.30911 -1.98937 7.82192
H 5.05183 3.11770 3.10534
H 6.67818 2.78719 -2.91606
H 9.45346 -2.75712 -1.91949
H 6.95637 -0.54069 5.81886
H 5.88277 2.01062 5.29420
H 4.90772 -0.75692 4.71960
H 4.33619 0.48448 3.58531
H 3.96853 0.68077 5.27231
H 8.25503 2.17636 5.50759
H 9.31973 0.74495 5.75792
H 7.30012 0.70426 7.76467
H 7.61234 2.37993 7.48267
H 4.78020 5.11056 2.47649
H 4.16568 5.67672 0.95958
H 5.70249 6.36091 1.54000
H 4.76332 6.69388 -0.93346
H 5.84723 7.33474 -2.29770
H 6.44555 7.07813 -0.63349
H 8.12176 1.21918 -4.31501
H 7.90456 -1.71359 -3.85843
H 6.25223 0.71098 -5.48792
H 5.44311 0.39232 -3.91318
H 6.17218 -0.88464 -4.74592
H 9.62077 -0.63736 -5.36446
H 10.25076 -1.86409 -4.28130
H 10.45484 1.05829 -4.29408
H 11.77704 -0.13298 -4.01573
H 10.59624 0.30690 -2.70176
H 11.02920 -4.85174 0.63663
H 10.29977 -4.44231 -0.94971
H 9.26407 -5.20215 0.32395
H 8.13567 -2.92094 4.77674
H 10.42674 -2.89285 8.42820
H 9.84862 -1.11069 8.31143
H 11.34100 -1.75741 7.58562

