%nproc=24
%mem=175gb
#p cam-b3lyp/Def2SVP td=(nstates=5)

TDDFT excited states in gaussian

0 1
Mg 0.00000 0.00000 0.00000
C -0.21700 -2.21800 2.80100
C -1.25500 2.44200 2.02600
C -0.24500 1.85000 -2.56400
C 0.14600 -2.82400 -2.03700
N -0.61700 -0.00900 2.12600
C -0.59400 -0.90800 3.10500
C -0.93600 -0.30900 4.50200
C -1.77300 0.96400 4.03200
C -1.15500 1.16800 2.66000
C -3.26300 0.68500 3.86300
C 0.34500 0.11000 5.29900
C 0.12400 0.39700 6.78700
H 1.16800 0.03300 7.73300
N -0.18500 1.96100 -0.15200
C -0.70300 2.80000 0.77700
C -0.62000 4.15600 0.19300
C -0.18700 4.01500 -1.22500
C -0.21400 2.58300 -1.38000
C -0.88700 5.40600 0.97400
C 0.18100 5.01300 -2.27700
O 0.30300 4.69000 -3.50800
C 0.31000 6.41400 -1.83700
N -0.26500 -0.41300 -2.02900
C -0.27900 0.56900 -2.93700
C -0.19600 0.02400 -4.33200
C 0.12400 -1.53300 -4.18000
C 0.08600 -1.63200 -2.63500
C -1.45100 0.20500 -5.19700
C 1.37300 -2.07000 -4.92300
C 2.62600 -1.49000 -4.30600
N 0.15000 -2.14400 0.30300
C 0.17300 -3.13600 -0.68800
C 0.17300 -4.43800 0.00400
C 0.13300 -4.11100 1.35800
C 0.08300 -2.69500 1.50200
C 0.14900 -5.71500 -0.62300
C 0.09600 -4.62900 2.71600
O 0.20800 -5.74700 3.22100
C -0.25500 -3.42800 3.70100
C 0.71700 -3.48200 4.84800
O 1.93100 -3.25500 4.66900
O 0.03800 -3.55600 6.00300
C 0.94300 -3.58300 7.18300
H -1.85900 3.22000 2.49700
H -0.21800 2.45300 -3.47400
H 0.27600 -3.74700 -2.60500
H -1.55400 -0.94900 5.13200
H -1.58500 1.83100 4.66500
H -3.48400 -0.37700 3.96900
H -3.51100 1.02700 2.85800
H -3.85200 1.30100 4.54300
H 0.66900 1.09600 4.96600
H 1.13000 -0.63900 5.18900
H -0.84400 0.02600 7.12500
H 0.06200 1.47700 6.92100
H -1.34400 5.18600 1.93800
H -1.65100 5.96300 0.43200
H 0.00700 6.02000 1.08400
H -0.63500 6.74400 -1.40500
H 0.66500 6.97000 -2.70400
H 1.04800 6.46600 -1.03600
H 0.60800 0.50100 -4.89100
H -0.69200 -2.15600 -4.54700
H -1.26700 0.74000 -6.12900
H -2.20400 0.71400 -4.59600
H -1.96700 -0.72000 -5.45300
H 1.35600 -1.75900 -5.96700
H 1.45200 -3.15700 -4.90200
H 2.71400 -0.52200 -4.79800
H 3.48700 -2.12100 -4.52900
H 2.49500 -1.30300 -3.24000
H 0.86700 -6.33300 -0.08400
H 0.40400 -5.64200 -1.68000
H -0.89100 -5.99900 -0.46300
H -1.28300 -3.58100 4.02800
H 0.69800 -4.47800 7.75500
H 0.83300 -2.61900 7.68000
H 2.00000 -3.75400 6.97600
Mg 7.89162 0.71345 0.59369
C 10.46057 -1.45344 1.85231
C 9.66186 3.32210 1.89589
C 5.43599 2.59818 -0.10283
C 5.81585 -2.08031 0.41524
N 9.80065 0.79659 1.70765
C 10.71911 -0.08468 2.07390
C 12.02139 0.54152 2.64091
C 11.41997 1.94939 3.12572
C 10.23858 2.05487 2.16350
C 10.87833 1.91568 4.54516
C 13.12064 0.73564 1.53818
C 14.51905 1.05233 2.07287
H 15.67486 0.51476 1.36041
N 7.79831 2.68773 0.41462
C 8.61029 3.59664 0.99414
C 8.11245 4.91263 0.56461
C 6.84099 4.71220 -0.18234
C 6.62694 3.29579 0.03688
C 8.87014 6.18650 0.80242
C 5.95655 5.64405 -0.95411
O 4.77681 5.30317 -1.32132
C 6.47634 6.99957 -1.18621
N 5.85085 0.36080 0.41136
C 5.00916 1.34414 0.04731
C 3.64189 0.79641 -0.28575
C 3.80866 -0.79403 -0.30274
C 5.28760 -0.89803 0.13004
C 2.51887 1.17984 0.67768
C 3.36223 -1.53473 -1.59298
C 4.27860 -1.17232 -2.73942
N 8.12448 -1.41721 0.86593
C 7.11954 -2.40447 0.76835
C 7.73549 -3.69189 1.14990
C 9.06063 -3.35795 1.46768
C 9.25132 -1.95794 1.31572
C 7.06681 -4.94672 1.21624
C 10.33864 -3.86986 1.90737
O 10.80152 -4.99137 2.11154
C 11.26804 -2.64095 2.29774
C 12.61259 -2.85379 1.65789
O 12.73224 -2.84352 0.42008
O 13.56385 -2.81707 2.60875
C 14.91626 -3.01238 2.02169
H 10.01884 4.18416 2.46008
H 4.58313 3.18605 -0.44996
H 5.26114 -3.01281 0.29107
H 12.45145 0.01141 3.48222
H 12.12420 2.75952 2.95510
H 10.87990 0.91591 4.95334
H 9.86769 2.29758 4.48352
H 11.42874 2.61999 5.17550
H 12.91563 1.66273 0.98753
H 13.16611 -0.11860 0.89101
H 14.60395 0.85368 3.14818
H 14.68880 2.12818 1.98485
H 9.68724 6.04061 1.51968
H 8.18535 6.87635 1.30743
H 9.21810 6.64880 -0.12380
H 6.68490 7.47489 -0.23069
H 5.74215 7.48782 -1.82999
H 7.43317 6.92166 -1.71445
H 3.32132 1.12663 -1.26621
H 3.21505 -1.27444 0.48889
H 1.67251 1.69026 0.18047
H 2.93561 1.80499 1.45618
H 2.09614 0.35345 1.24651
H 2.35872 -1.21553 -1.88493
H 3.33824 -2.61398 -1.48509
H 3.86449 -0.22453 -3.09622
H 4.24280 -1.93533 -3.51438
H 5.29592 -0.97400 -2.38253
H 7.72796 -5.67594 0.76721
H 6.10621 -4.91277 0.70649
H 6.95366 -5.05043 2.29870
H 11.33261 -2.61181 3.38612
H 15.37274 -3.85808 2.54525
H 15.42369 -2.03319 2.10805
H 14.97232 -3.34586 0.99208

