%nproc=24
%mem=175gb
#p cam-b3lyp/Def2SVP td=(nstates=5)

TDDFT excited states in gaussian

0 1
Mg 0.00000 0.00000 0.00000
C -0.21700 -2.21800 2.80100
C -1.25500 2.44200 2.02600
C -0.24500 1.85000 -2.56400
C 0.14600 -2.82400 -2.03700
N -0.61700 -0.00900 2.12600
C -0.59400 -0.90800 3.10500
C -0.93600 -0.30900 4.50200
C -1.77300 0.96400 4.03200
C -1.15500 1.16800 2.66000
C -3.26300 0.68500 3.86300
C 0.34500 0.11000 5.29900
C 0.12400 0.39700 6.78700
H 1.16800 0.03300 7.73300
N -0.18500 1.96100 -0.15200
C -0.70300 2.80000 0.77700
C -0.62000 4.15600 0.19300
C -0.18700 4.01500 -1.22500
C -0.21400 2.58300 -1.38000
C -0.88700 5.40600 0.97400
C 0.18100 5.01300 -2.27700
O 0.30300 4.69000 -3.50800
C 0.31000 6.41400 -1.83700
N -0.26500 -0.41300 -2.02900
C -0.27900 0.56900 -2.93700
C -0.19600 0.02400 -4.33200
C 0.12400 -1.53300 -4.18000
C 0.08600 -1.63200 -2.63500
C -1.45100 0.20500 -5.19700
C 1.37300 -2.07000 -4.92300
C 2.62600 -1.49000 -4.30600
N 0.15000 -2.14400 0.30300
C 0.17300 -3.13600 -0.68800
C 0.17300 -4.43800 0.00400
C 0.13300 -4.11100 1.35800
C 0.08300 -2.69500 1.50200
C 0.14900 -5.71500 -0.62300
C 0.09600 -4.62900 2.71600
O 0.20800 -5.74700 3.22100
C -0.25500 -3.42800 3.70100
C 0.71700 -3.48200 4.84800
O 1.93100 -3.25500 4.66900
O 0.03800 -3.55600 6.00300
C 0.94300 -3.58300 7.18300
H -1.85900 3.22000 2.49700
H -0.21800 2.45300 -3.47400
H 0.27600 -3.74700 -2.60500
H -1.55400 -0.94900 5.13200
H -1.58500 1.83100 4.66500
H -3.48400 -0.37700 3.96900
H -3.51100 1.02700 2.85800
H -3.85200 1.30100 4.54300
H 0.66900 1.09600 4.96600
H 1.13000 -0.63900 5.18900
H -0.84400 0.02600 7.12500
H 0.06200 1.47700 6.92100
H -1.34400 5.18600 1.93800
H -1.65100 5.96300 0.43200
H 0.00700 6.02000 1.08400
H -0.63500 6.74400 -1.40500
H 0.66500 6.97000 -2.70400
H 1.04800 6.46600 -1.03600
H 0.60800 0.50100 -4.89100
H -0.69200 -2.15600 -4.54700
H -1.26700 0.74000 -6.12900
H -2.20400 0.71400 -4.59600
H -1.96700 -0.72000 -5.45300
H 1.35600 -1.75900 -5.96700
H 1.45200 -3.15700 -4.90200
H 2.71400 -0.52200 -4.79800
H 3.48700 -2.12100 -4.52900
H 2.49500 -1.30300 -3.24000
H 0.86700 -6.33300 -0.08400
H 0.40400 -5.64200 -1.68000
H -0.89100 -5.99900 -0.46300
H -1.28300 -3.58100 4.02800
H 0.69800 -4.47800 7.75500
H 0.83300 -2.61900 7.68000
H 2.00000 -3.75400 6.97600
Mg 13.14256 1.18574 0.98868
C 15.84871 -1.14694 0.65045
C 15.46661 3.67693 0.82333
C 10.84498 3.24319 1.73401
C 11.22492 -1.43515 2.25331
N 15.34263 1.14433 0.76458
C 16.25553 0.20193 0.58339
C 17.67090 0.73593 0.23536
C 17.54113 2.20021 0.88182
C 16.02667 2.37490 0.78929
C 17.93880 2.24830 2.34772
C 17.91749 0.81114 -1.31240
C 19.37603 1.02813 -1.72143
H 19.86192 0.38018 -2.93656
N 13.05955 3.15562 0.76224
C 14.10085 4.01121 0.69193
C 13.51143 5.35112 0.54563
C 12.03600 5.23404 0.70085
C 11.92238 3.84590 1.10115
C 14.32571 6.56560 0.20591
C 10.91415 6.21325 0.53112
O 9.72943 5.95898 0.94901
C 11.26376 7.51570 -0.05444
N 11.37172 0.99419 2.06096
C 10.52709 2.03216 2.19190
C 9.20100 1.58783 2.76151
C 9.24676 -0.01075 2.76005
C 10.68939 -0.22215 2.25062
C 8.88178 2.08628 4.17077
C 8.08995 -0.74727 2.03066
C 8.17161 -0.49078 0.54307
N 13.38526 -0.94871 1.21943
C 12.46838 -1.85390 1.79739
C 13.12620 -3.17616 1.83380
C 14.39872 -2.94187 1.29131
C 14.53231 -1.56638 0.96014
C 12.56384 -4.37071 2.36571
C 15.66317 -3.54330 0.93333
O 16.10125 -4.69265 0.90466
C 16.70358 -2.38340 0.61937
C 17.40054 -2.72109 -0.67010
O 16.76835 -2.75362 -1.74056
O 18.72974 -2.73583 -0.46180
C 19.46501 -3.05528 -1.71446
H 16.12957 4.52215 1.01034
H 9.98172 3.88848 1.91249
H 10.65821 -2.32283 2.54233
H 18.48714 0.19554 0.69960
H 18.04872 2.94601 0.27560
H 18.13102 1.26295 2.74556
H 17.10627 2.70873 2.86342
H 18.78892 2.92251 2.48577
H 17.47365 1.73669 -1.70113
H 17.53062 -0.06099 -1.80266
H 20.06813 0.85212 -0.88899
H 19.51435 2.08403 -1.96629
H 15.40005 6.37349 0.31674
H 14.10504 7.32172 0.96713
H 14.08360 6.97337 -0.77785
H 12.01840 7.99804 0.56227
H 10.31653 8.04422 -0.17814
H 11.72044 7.34673 -1.03602
H 8.38121 1.91650 2.13459
H 9.21056 -0.42034 3.78022
H 7.93151 2.64985 4.22960
H 9.70746 2.69636 4.51224
H 8.83501 1.31221 4.93486
H 7.12439 -0.35605 2.36051
H 8.08072 -1.81778 2.20644
H 7.67435 0.47744 0.43192
H 7.64843 -1.26888 -0.00910
H 9.21219 -0.36574 0.22180
H 12.79645 -5.16266 1.66628
H 11.49045 -4.27300 2.51425
H 13.10511 -4.43596 3.31336
H 17.39826 -2.33046 1.45853
H 20.09974 -3.92075 -1.50050
H 19.97362 -2.11828 -2.00955
H 18.88717 -3.41962 -2.55577

