%nproc=24
%mem=175gb
#p cam-b3lyp/Def2SVP td=(nstates=5)

TDDFT excited states in gaussian

0 1
Mg 15.77426 1.42423 1.20269
C 16.20451 -0.74327 4.03039
C 15.12265 3.93626 3.41623
C 14.94894 3.24620 -1.26037
C 15.33025 -1.43232 -0.74375
N 15.70334 1.46732 3.41298
C 15.94472 0.59765 4.38239
C 15.98470 1.21575 5.80574
C 15.08174 2.51464 5.52929
C 15.34079 2.67847 4.03306
C 13.59592 2.26908 5.73271
C 17.43840 1.60978 6.24565
C 17.59522 1.93081 7.73364
H 18.83861 1.55321 8.39987
N 15.61087 3.39710 1.06242
C 15.36742 4.26679 2.06524
C 15.32065 5.59799 1.44083
C 15.39242 5.42632 -0.03568
C 15.29715 3.98393 -0.13829
C 15.29742 6.87008 2.23749
C 15.51240 6.40010 -1.16862
O 15.31751 6.04549 -2.38480
C 15.77278 7.80053 -0.80460
N 15.01082 0.98724 -0.68106
C 14.78986 1.96189 -1.58060
C 14.50486 1.38783 -2.94794
C 14.82011 -0.17572 -2.83170
C 15.16225 -0.25375 -1.32763
C 13.08053 1.58231 -3.46740
C 15.83136 -0.76748 -3.85144
C 17.21262 -0.21115 -3.59066
N 15.94486 -0.70785 1.50791
C 15.68883 -1.72765 0.56529
C 15.82948 -3.01795 1.27081
C 16.13743 -2.65593 2.59089
C 16.16545 -1.23971 2.70496
C 15.62824 -4.30546 0.69815
C 16.43471 -3.14971 3.91622
O 16.63353 -4.26126 4.40477
C 16.36690 -1.93242 4.93602
C 17.59186 -1.98753 5.80720
O 18.72244 -1.81157 5.31992
O 17.21343 -2.02165 7.09794
C 18.39385 -2.06577 8.00154
H 14.68257 4.73673 4.01160
H 14.76297 3.82648 -2.16711
H 15.30388 -2.36994 -1.30309
H 15.53229 0.60604 6.57862
H 15.45229 3.37717 6.07710
H 13.38118 1.22669 5.91560
H 13.11557 2.60007 4.82125
H 13.21236 2.91539 6.52738
H 17.69021 2.58745 5.81496
H 18.14091 0.84968 5.96398
H 16.72929 1.60038 8.32010
H 17.60282 3.01668 7.85544
H 15.08345 6.67789 3.29611
H 14.43710 7.45084 1.88757
H 16.20312 7.46599 2.10605
H 14.97599 8.15961 -0.15757
H 15.91476 8.32679 -1.75052
H 16.69759 7.84351 -0.21852
H 15.15801 1.82349 -3.69408
H 13.91696 -0.78563 -2.98059
H 13.03877 2.10555 -4.44134
H 12.51569 2.12388 -2.72027
H 12.50029 0.66779 -3.57770
H 15.56315 -0.46856 -4.86774
H 15.87631 -1.85133 -3.83581
H 17.19371 0.75066 -4.11185
H 17.97477 -0.86892 -4.00358
H 17.35904 -0.00523 -2.52398
H 16.43416 -4.93371 1.05354
H 15.60928 -4.25864 -0.38869
H 14.64868 -4.55360 1.11547
H 15.44828 -2.04008 5.51404
H 18.27387 -2.94565 8.64115
H 18.42407 -1.07964 8.50191
H 19.36114 -2.26045 7.55332

