%nproc=24
%mem=175gb
#p cam-b3lyp/Def2SVP td=(nstates=5)

TDDFT excited states in gaussian

0 1
Mg 0.00000 0.00000 0.00000
C -0.21700 -2.21800 2.80100
C -1.25500 2.44200 2.02600
C -0.24500 1.85000 -2.56400
C 0.14600 -2.82400 -2.03700
N -0.61700 -0.00900 2.12600
C -0.59400 -0.90800 3.10500
C -0.93600 -0.30900 4.50200
C -1.77300 0.96400 4.03200
C -1.15500 1.16800 2.66000
C -3.26300 0.68500 3.86300
C 0.34500 0.11000 5.29900
C 0.12400 0.39700 6.78700
H 1.16800 0.03300 7.73300
N -0.18500 1.96100 -0.15200
C -0.70300 2.80000 0.77700
C -0.62000 4.15600 0.19300
C -0.18700 4.01500 -1.22500
C -0.21400 2.58300 -1.38000
C -0.88700 5.40600 0.97400
C 0.18100 5.01300 -2.27700
O 0.30300 4.69000 -3.50800
C 0.31000 6.41400 -1.83700
N -0.26500 -0.41300 -2.02900
C -0.27900 0.56900 -2.93700
C -0.19600 0.02400 -4.33200
C 0.12400 -1.53300 -4.18000
C 0.08600 -1.63200 -2.63500
C -1.45100 0.20500 -5.19700
C 1.37300 -2.07000 -4.92300
C 2.62600 -1.49000 -4.30600
N 0.15000 -2.14400 0.30300
C 0.17300 -3.13600 -0.68800
C 0.17300 -4.43800 0.00400
C 0.13300 -4.11100 1.35800
C 0.08300 -2.69500 1.50200
C 0.14900 -5.71500 -0.62300
C 0.09600 -4.62900 2.71600
O 0.20800 -5.74700 3.22100
C -0.25500 -3.42800 3.70100
C 0.71700 -3.48200 4.84800
O 1.93100 -3.25500 4.66900
O 0.03800 -3.55600 6.00300
C 0.94300 -3.58300 7.18300
H -1.85900 3.22000 2.49700
H -0.21800 2.45300 -3.47400
H 0.27600 -3.74700 -2.60500
H -1.55400 -0.94900 5.13200
H -1.58500 1.83100 4.66500
H -3.48400 -0.37700 3.96900
H -3.51100 1.02700 2.85800
H -3.85200 1.30100 4.54300
H 0.66900 1.09600 4.96600
H 1.13000 -0.63900 5.18900
H -0.84400 0.02600 7.12500
H 0.06200 1.47700 6.92100
H -1.34400 5.18600 1.93800
H -1.65100 5.96300 0.43200
H 0.00700 6.02000 1.08400
H -0.63500 6.74400 -1.40500
H 0.66500 6.97000 -2.70400
H 1.04800 6.46600 -1.03600
H 0.60800 0.50100 -4.89100
H -0.69200 -2.15600 -4.54700
H -1.26700 0.74000 -6.12900
H -2.20400 0.71400 -4.59600
H -1.96700 -0.72000 -5.45300
H 1.35600 -1.75900 -5.96700
H 1.45200 -3.15700 -4.90200
H 2.71400 -0.52200 -4.79800
H 3.48700 -2.12100 -4.52900
H 2.49500 -1.30300 -3.24000
H 0.86700 -6.33300 -0.08400
H 0.40400 -5.64200 -1.68000
H -0.89100 -5.99900 -0.46300
H -1.28300 -3.58100 4.02800
H 0.69800 -4.47800 7.75500
H 0.83300 -2.61900 7.68000
H 2.00000 -3.75400 6.97600
Mg 10.51857 0.93946 0.80097
C 10.71490 -1.00993 -2.20575
C 9.77049 -1.95173 2.44900
C 9.89679 2.68516 3.37650
C 10.14892 3.75775 -1.21554
N 10.30057 -1.14788 0.10257
C 10.45899 -1.77873 -1.05124
C 10.41586 -3.32703 -0.94896
C 9.55963 -3.45492 0.40359
C 9.92159 -2.11896 1.04925
C 8.05890 -3.47943 0.16578
C 11.84440 -3.95532 -0.78603
C 11.90754 -5.47064 -0.98986
H 13.09569 -6.03922 -1.62035
N 10.40446 0.41442 2.71144
C 10.11182 -0.80773 3.20337
C 10.13365 -0.66781 4.66765
C 10.30075 0.77343 4.99871
C 10.18372 1.36217 3.67971
C 10.08255 -1.84451 5.59835
C 10.51585 1.50242 6.29042
O 10.39585 2.77585 6.37299
C 10.77923 0.67293 7.47535
N 9.87450 2.89999 1.05364
C 9.73387 3.42860 2.28194
C 9.52971 4.92321 2.21247
C 9.80510 5.32409 0.68897
C 10.04405 3.91793 0.09652
C 8.14757 5.42590 2.62886
C 10.87037 6.42504 0.43246
C 12.24190 5.91436 0.81125
N 10.62563 1.36287 -1.31500
C 10.41299 2.60727 -1.94770
C 10.48019 2.37205 -3.40461
C 10.70617 0.99213 -3.51977
C 10.75482 0.40524 -2.22644
C 10.29205 3.35613 -4.41570
C 10.90402 -0.10320 -4.44161
O 11.04737 -0.19818 -5.65988
C 10.79240 -1.46854 -3.63554
C 11.95488 -2.33752 -4.03057
O 13.11886 -2.00279 -3.74825
O 11.49019 -3.51746 -4.48023
C 12.60628 -4.41810 -4.87395
H 9.30762 -2.75659 3.02069
H 9.78366 3.35170 4.23464
H 10.14133 4.60133 -1.90907
H 9.90056 -3.82190 -1.76342
H 9.90983 -4.28171 1.01607
H 7.81156 -3.28725 -0.86768
H 7.64743 -2.70770 0.80309
H 7.63596 -4.42268 0.52317
H 12.14403 -3.89489 0.26816
H 12.54886 -3.47363 -1.43591
H 10.99782 -5.86133 -1.46179
H 11.92870 -5.95211 -0.00917
H 9.79431 -2.76225 5.07102
H 9.25941 -1.66332 6.29798
H 11.00676 -1.97322 6.16574
H 9.94822 -0.01135 7.62911
H 10.99478 1.37604 8.28223
H 11.66335 0.05562 7.28077
H 10.23997 5.44040 2.84583
H 8.90194 5.72079 0.20239
H 8.18165 6.16671 3.44989
H 7.54488 4.57288 2.91113
H 7.55784 5.87098 1.82928
H 10.67690 7.29415 1.06600
H 10.89247 6.77374 -0.59463
H 12.27722 6.08042 1.89212
H 13.01669 6.48146 0.29927
H 12.32060 4.83434 0.64094
H 11.05961 3.18889 -5.15961
H 10.34691 4.36259 -4.00605
H 9.28196 3.10299 -4.74871
H 9.83513 -1.92355 -3.89281
H 12.42613 -4.71527 -5.91170
H 12.62263 -5.22287 -4.11512
H 13.59735 -3.98573 -4.94678

