%nproc=24
%mem=175gb
#p cam-b3lyp/Def2SVP td=(nstates=5)

TDDFT excited states in gaussian

0 1
Mg 0.00000 0.00000 0.00000
C -0.21700 -2.21800 2.80100
C -1.25500 2.44200 2.02600
C -0.24500 1.85000 -2.56400
C 0.14600 -2.82400 -2.03700
N -0.61700 -0.00900 2.12600
C -0.59400 -0.90800 3.10500
C -0.93600 -0.30900 4.50200
C -1.77300 0.96400 4.03200
C -1.15500 1.16800 2.66000
C -3.26300 0.68500 3.86300
C 0.34500 0.11000 5.29900
C 0.12400 0.39700 6.78700
H 1.16800 0.03300 7.73300
N -0.18500 1.96100 -0.15200
C -0.70300 2.80000 0.77700
C -0.62000 4.15600 0.19300
C -0.18700 4.01500 -1.22500
C -0.21400 2.58300 -1.38000
C -0.88700 5.40600 0.97400
C 0.18100 5.01300 -2.27700
O 0.30300 4.69000 -3.50800
C 0.31000 6.41400 -1.83700
N -0.26500 -0.41300 -2.02900
C -0.27900 0.56900 -2.93700
C -0.19600 0.02400 -4.33200
C 0.12400 -1.53300 -4.18000
C 0.08600 -1.63200 -2.63500
C -1.45100 0.20500 -5.19700
C 1.37300 -2.07000 -4.92300
C 2.62600 -1.49000 -4.30600
N 0.15000 -2.14400 0.30300
C 0.17300 -3.13600 -0.68800
C 0.17300 -4.43800 0.00400
C 0.13300 -4.11100 1.35800
C 0.08300 -2.69500 1.50200
C 0.14900 -5.71500 -0.62300
C 0.09600 -4.62900 2.71600
O 0.20800 -5.74700 3.22100
C -0.25500 -3.42800 3.70100
C 0.71700 -3.48200 4.84800
O 1.93100 -3.25500 4.66900
O 0.03800 -3.55600 6.00300
C 0.94300 -3.58300 7.18300
H -1.85900 3.22000 2.49700
H -0.21800 2.45300 -3.47400
H 0.27600 -3.74700 -2.60500
H -1.55400 -0.94900 5.13200
H -1.58500 1.83100 4.66500
H -3.48400 -0.37700 3.96900
H -3.51100 1.02700 2.85800
H -3.85200 1.30100 4.54300
H 0.66900 1.09600 4.96600
H 1.13000 -0.63900 5.18900
H -0.84400 0.02600 7.12500
H 0.06200 1.47700 6.92100
H -1.34400 5.18600 1.93800
H -1.65100 5.96300 0.43200
H 0.00700 6.02000 1.08400
H -0.63500 6.74400 -1.40500
H 0.66500 6.97000 -2.70400
H 1.04800 6.46600 -1.03600
H 0.60800 0.50100 -4.89100
H -0.69200 -2.15600 -4.54700
H -1.26700 0.74000 -6.12900
H -2.20400 0.71400 -4.59600
H -1.96700 -0.72000 -5.45300
H 1.35600 -1.75900 -5.96700
H 1.45200 -3.15700 -4.90200
H 2.71400 -0.52200 -4.79800
H 3.48700 -2.12100 -4.52900
H 2.49500 -1.30300 -3.24000
H 0.86700 -6.33300 -0.08400
H 0.40400 -5.64200 -1.68000
H -0.89100 -5.99900 -0.46300
H -1.28300 -3.58100 4.02800
H 0.69800 -4.47800 7.75500
H 0.83300 -2.61900 7.68000
H 2.00000 -3.75400 6.97600
Mg 31.52812 2.84652 2.40108
C 33.78288 2.99560 5.18907
C 29.05657 2.10318 4.63122
C 29.61574 2.26566 -0.06323
C 34.31615 2.46731 0.34468
N 31.54178 2.60881 4.60007
C 32.44424 2.74972 5.55926
C 31.86592 2.69955 6.99891
C 30.53203 1.85926 6.69307
C 30.33667 2.23625 5.22597
C 30.73551 0.35563 6.77684
C 31.53023 4.12659 7.55827
C 31.25417 4.17912 9.06253
H 31.68880 5.35640 9.80925
N 29.54801 2.75298 2.30620
C 28.69807 2.45983 3.31265
C 27.34987 2.50033 2.72538
C 27.48430 2.67919 1.25410
C 28.91967 2.54918 1.10281
C 26.09939 2.45432 3.55460
C 26.48494 2.91398 0.16214
O 26.80060 2.80181 -1.07503
C 25.10373 3.18739 0.58521
N 31.89018 2.21609 0.45331
C 30.88534 2.09333 -0.43165
C 31.41335 1.89635 -1.83265
C 32.98869 2.15522 -1.73841
C 33.11767 2.37936 -0.21575
C 31.15984 0.52211 -2.45201
C 33.58493 3.22315 -2.69586
C 33.08000 4.59646 -2.31580
N 33.67194 2.92994 2.65629
C 34.65756 2.71624 1.66788
C 35.97005 2.76435 2.34426
C 35.65336 2.98151 3.69372
C 34.24229 3.04284 3.85062
C 37.23476 2.56913 1.72096
C 36.19153 3.16220 5.02279
O 37.32147 3.29012 5.49247
C 35.00033 3.05314 6.06947
C 35.11763 4.20602 7.02844
O 34.96481 5.37515 6.63297
O 35.17411 3.72956 8.28549
C 35.27987 4.83591 9.27373
H 28.25867 1.64304 5.21474
H 29.00586 2.16660 -0.96418
H 35.23719 2.45576 -0.24202
H 32.48132 2.17168 7.71753
H 29.69666 2.21249 7.29202
H 31.77504 0.09670 6.91272
H 30.36520 -0.04387 5.84179
H 30.09874 -0.06795 7.55878
H 30.54994 4.43941 7.17631
H 32.30453 4.82562 7.30836
H 31.57239 3.26161 9.57229
H 30.17272 4.20970 9.21601
H 26.31286 2.15474 4.58808
H 25.48242 1.64078 3.15790
H 25.52932 3.38470 3.50906
H 24.73685 2.35467 1.18055
H 24.55720 3.41656 -0.33167
H 25.10585 4.06575 1.24026
H 30.97896 2.61707 -2.51454
H 33.56536 1.24831 -1.97251
H 30.60975 0.57021 -3.41073
H 30.62070 -0.08163 -1.73412
H 32.05217 -0.07496 -2.63217
H 33.25062 3.04211 -3.72037
H 34.66969 3.23455 -2.70834
H 32.10451 4.64589 -2.80881
H 33.75044 5.36796 -2.68908
H 32.90738 4.66728 -1.23560
H 37.89760 3.32662 2.11765
H 37.15838 2.63438 0.63759
H 37.46264 1.55370 2.05597
H 35.09408 2.09037 6.57332
H 36.17223 4.64148 9.87670
H 34.30890 4.85723 9.80336
H 35.49321 5.82831 8.89415

