%nproc=24
%mem=175gb
#p cam-b3lyp/Def2SVP td=(nstates=5)

TDDFT excited states in gaussian

0 1
Mg 13.14515 1.18730 1.00506
C 12.76732 -1.03152 3.80026
C 12.03180 3.69268 3.03438
C 13.03676 3.07080 -1.54604
C 13.12035 -1.62504 -1.05306
N 12.51308 1.20408 3.12460
C 12.47012 0.31342 4.10400
C 12.16513 0.91093 5.50383
C 11.40574 2.24605 5.03514
C 12.04383 2.41968 3.65841
C 9.91009 2.05334 4.84749
C 13.47016 1.24477 6.30848
C 13.25183 1.54025 7.79400
H 14.27061 1.10793 8.74672
N 13.08756 3.16655 0.87151
C 12.62442 4.03151 1.79812
C 12.78230 5.37158 1.21208
C 13.22344 5.21668 -0.20076
C 13.11051 3.78031 -0.35621
C 12.59778 6.63313 2.00446
C 13.66076 6.20006 -1.24380
O 13.77173 5.86889 -2.47702
C 13.86504 7.58494 -0.79449
N 12.87471 0.80372 -1.02030
C 12.92297 1.79760 -1.92462
C 12.97834 1.25249 -3.33181
C 13.20217 -0.32310 -3.17370
C 13.14576 -0.43349 -1.63421
C 11.74123 1.50665 -4.19283
C 14.42058 -0.93872 -3.91474
C 15.70671 -0.43767 -3.29813
N 13.16234 -0.95347 1.29637
C 13.12259 -1.95061 0.29726
C 13.03601 -3.25437 0.98657
C 13.00797 -2.92137 2.34922
C 13.05215 -1.50878 2.49801
C 12.94590 -4.52590 0.35314
C 12.94033 -3.44317 3.69527
O 12.97126 -4.56764 4.19361
C 12.65391 -2.23764 4.69078
C 13.61302 -2.34972 5.84406
O 14.83572 -2.20961 5.66518
O 12.91635 -2.38660 6.99456
C 13.82450 -2.48646 8.16806
H 11.48055 4.50112 3.51545
H 13.10779 3.66941 -2.45714
H 13.20722 -2.55362 -1.62126
H 11.51053 0.30843 6.12211
H 11.65193 3.08694 5.67830
H 9.62180 1.01737 4.94644
H 9.68974 2.41388 3.85125
H 9.35747 2.70304 5.53221
H 13.85548 2.21794 5.97800
H 14.19612 0.46279 6.19847
H 12.25446 1.23465 8.13282
H 13.26351 2.62340 7.93775
H 12.11417 6.43520 2.96901
H 11.87492 7.25004 1.45971
H 13.52595 7.19656 2.12153
H 12.94150 7.96495 -0.36421
H 14.26119 8.11788 -1.66104
H 14.61021 7.58579 0.00884
H 13.81437 1.67324 -3.87690
H 12.34766 -0.89697 -3.56142
H 11.96691 2.04377 -5.13338
H 11.02219 2.05905 -3.60260
H 11.17892 0.61588 -4.46766
H 14.43096 -0.61676 -4.95896
H 14.42463 -2.02361 -3.91219
H 15.85308 0.53092 -3.78548
H 16.52719 -1.11790 -3.51755
H 15.58227 -0.25132 -2.22508
H 13.61324 -5.18831 0.88827
H 13.20690 -4.46418 -0.70130
H 11.88465 -4.74283 0.50130
H 11.61504 -2.31857 5.01294
H 13.51635 -3.36955 8.73629
H 13.75801 -1.50876 8.68132
H 14.86733 -2.71113 7.97710

