%nproc=24
%mem=175gb
#p cam-b3lyp/Def2SVP td=(nstates=5)

TDDFT excited states in gaussian

0 1
Mg 0.00000 0.00000 0.00000
C -0.21700 -2.21800 2.80100
C -1.25500 2.44200 2.02600
C -0.24500 1.85000 -2.56400
C 0.14600 -2.82400 -2.03700
N -0.61700 -0.00900 2.12600
C -0.59400 -0.90800 3.10500
C -0.93600 -0.30900 4.50200
C -1.77300 0.96400 4.03200
C -1.15500 1.16800 2.66000
C -3.26300 0.68500 3.86300
C 0.34500 0.11000 5.29900
C 0.12400 0.39700 6.78700
H 1.16800 0.03300 7.73300
N -0.18500 1.96100 -0.15200
C -0.70300 2.80000 0.77700
C -0.62000 4.15600 0.19300
C -0.18700 4.01500 -1.22500
C -0.21400 2.58300 -1.38000
C -0.88700 5.40600 0.97400
C 0.18100 5.01300 -2.27700
O 0.30300 4.69000 -3.50800
C 0.31000 6.41400 -1.83700
N -0.26500 -0.41300 -2.02900
C -0.27900 0.56900 -2.93700
C -0.19600 0.02400 -4.33200
C 0.12400 -1.53300 -4.18000
C 0.08600 -1.63200 -2.63500
C -1.45100 0.20500 -5.19700
C 1.37300 -2.07000 -4.92300
C 2.62600 -1.49000 -4.30600
N 0.15000 -2.14400 0.30300
C 0.17300 -3.13600 -0.68800
C 0.17300 -4.43800 0.00400
C 0.13300 -4.11100 1.35800
C 0.08300 -2.69500 1.50200
C 0.14900 -5.71500 -0.62300
C 0.09600 -4.62900 2.71600
O 0.20800 -5.74700 3.22100
C -0.25500 -3.42800 3.70100
C 0.71700 -3.48200 4.84800
O 1.93100 -3.25500 4.66900
O 0.03800 -3.55600 6.00300
C 0.94300 -3.58300 7.18300
H -1.85900 3.22000 2.49700
H -0.21800 2.45300 -3.47400
H 0.27600 -3.74700 -2.60500
H -1.55400 -0.94900 5.13200
H -1.58500 1.83100 4.66500
H -3.48400 -0.37700 3.96900
H -3.51100 1.02700 2.85800
H -3.85200 1.30100 4.54300
H 0.66900 1.09600 4.96600
H 1.13000 -0.63900 5.18900
H -0.84400 0.02600 7.12500
H 0.06200 1.47700 6.92100
H -1.34400 5.18600 1.93800
H -1.65100 5.96300 0.43200
H 0.00700 6.02000 1.08400
H -0.63500 6.74400 -1.40500
H 0.66500 6.97000 -2.70400
H 1.04800 6.46600 -1.03600
H 0.60800 0.50100 -4.89100
H -0.69200 -2.15600 -4.54700
H -1.26700 0.74000 -6.12900
H -2.20400 0.71400 -4.59600
H -1.96700 -0.72000 -5.45300
H 1.35600 -1.75900 -5.96700
H 1.45200 -3.15700 -4.90200
H 2.71400 -0.52200 -4.79800
H 3.48700 -2.12100 -4.52900
H 2.49500 -1.30300 -3.24000
H 0.86700 -6.33300 -0.08400
H 0.40400 -5.64200 -1.68000
H -0.89100 -5.99900 -0.46300
H -1.28300 -3.58100 4.02800
H 0.69800 -4.47800 7.75500
H 0.83300 -2.61900 7.68000
H 2.00000 -3.75400 6.97600
Mg 13.14561 1.18085 1.00572
C 11.00473 -0.14160 3.56441
C 14.00833 3.63945 3.20700
C 14.68822 2.62271 -1.36257
C 11.28803 -0.65388 -1.30272
N 12.52056 1.58878 3.08783
C 11.74911 0.98287 3.97783
C 11.83858 1.56971 5.41211
C 12.33660 3.04934 5.03589
C 13.03145 2.74377 3.71057
C 11.19681 4.01740 4.76553
C 12.89082 0.81812 6.30088
C 12.81166 1.13310 7.79630
H 13.09836 0.06407 8.74890
N 14.55628 2.57595 1.05336
C 14.77844 3.47535 2.03468
C 15.91597 4.29132 1.58259
C 16.24177 3.90697 0.18229
C 15.13732 3.01547 -0.11013
C 16.62881 5.26144 2.47933
C 17.35521 4.28970 -0.74507
O 17.31074 4.02107 -1.99754
C 18.45576 5.07021 -0.16106
N 12.88077 1.17990 -1.05636
C 13.72342 1.84995 -1.86190
C 13.50278 1.48156 -3.30965
C 12.49591 0.23925 -3.28821
C 12.22708 0.15758 -1.76951
C 12.92915 2.58597 -4.19713
C 12.95082 -1.04820 -4.02861
C 14.12993 -1.66621 -3.31226
N 11.57477 -0.29968 1.09831
C 10.92137 -0.91922 0.01050
C 9.84866 -1.76578 0.57180
C 9.93829 -1.56054 1.95684
C 10.97930 -0.63477 2.23743
C 8.92609 -2.54681 -0.17984
C 9.38202 -1.90838 3.24458
O 8.53811 -2.71276 3.63769
C 9.96500 -0.90823 4.33372
C 10.42398 -1.72160 5.51282
O 11.37554 -2.51457 5.40169
O 9.81060 -1.27299 6.62317
C 10.24179 -2.04140 7.82127
H 14.17297 4.57855 3.73602
H 15.26008 3.00695 -2.21039
H 10.72853 -1.33263 -1.94997
H 10.89520 1.61857 5.94259
H 13.05186 3.42249 5.76427
H 10.23883 3.51911 4.75547
H 11.40580 4.45508 3.79816
H 11.22540 4.84302 5.48238
H 13.89187 1.20982 6.07910
H 12.82809 -0.24220 6.15112
H 11.87774 1.64359 8.06114
H 13.59189 1.85827 8.03996
H 16.06173 5.45027 3.39920
H 16.63774 6.22727 1.96265
H 17.65829 4.96315 2.68877
H 18.06090 5.99112 0.26141
H 19.19695 5.17061 -0.95632
H 18.88526 4.50107 0.67094
H 14.43059 1.17392 -3.77615
H 11.53543 0.48496 -3.76460
H 13.56454 2.81614 -5.07313
H 12.78303 3.46988 -3.59060
H 11.92651 2.39857 -4.57766
H 13.29356 -0.80403 -5.03710
H 12.16575 -1.79059 -4.12621
H 14.98030 -1.09803 -3.70103
H 14.21610 -2.72289 -3.55728
H 14.07573 -1.48145 -2.23310
H 8.84728 -3.50276 0.32062
H 9.25152 -2.66294 -1.21153
H 8.03167 -1.92329 -0.09926
H 9.16756 -0.21378 4.60094
H 9.33545 -2.43551 8.29128
H 10.85618 -1.34238 8.41931
H 10.80727 -2.95108 7.65647

