%nproc=24
%mem=175gb
#p cam-b3lyp/Def2SVP td=(nstates=5)

TDDFT excited states in gaussian

0 1
Mg 7.88963 0.71805 0.59958
C 7.33439 1.70691 4.00441
C 6.79755 3.81547 -0.32125
C 7.93862 -0.26989 -2.41522
C 7.83490 -2.58926 1.69703
N 7.18499 2.45019 1.78085
C 7.07565 2.73172 3.07047
C 6.74381 4.21643 3.37881
C 6.05008 4.60268 1.98295
C 6.74170 3.58623 1.07676
C 4.55589 4.32691 1.95688
C 8.03119 5.07537 3.63749
C 7.77198 6.45550 4.24561
H 8.74057 6.98887 5.19946
N 7.90843 1.75596 -1.09186
C 7.44483 3.00890 -1.28292
C 7.67149 3.30924 -2.70509
C 8.15578 2.07148 -3.37452
C 7.99642 1.11145 -2.30073
C 7.50521 4.68474 -3.28282
C 8.66455 1.79478 -4.75683
O 8.80644 0.59875 -5.19525
C 8.90302 2.96511 -5.61413
N 7.67635 -1.15670 -0.27346
C 7.79209 -1.31718 -1.60342
C 7.87678 -2.77938 -1.97108
C 8.03776 -3.56209 -0.58579
C 7.92370 -2.37201 0.39201
C 6.68049 -3.34293 -2.73770
C 9.25822 -4.51365 -0.45279
C 10.53934 -3.71117 -0.43997
N 7.81914 -0.28524 2.51178
C 7.77821 -1.67762 2.74349
C 7.62049 -1.87223 4.19940
C 7.55698 -0.56906 4.71533
C 7.64703 0.37126 3.65364
C 7.50657 -3.12604 4.86356
C 7.42354 0.22485 5.91558
O 7.39633 -0.02058 7.12089
C 7.14637 1.73265 5.49592
C 8.05996 2.61462 6.30215
O 9.29242 2.55920 6.14539
O 7.32267 3.52554 6.96320
C 8.18510 4.43070 7.76865
H 6.25947 4.67194 -0.72847
H 8.06303 -0.66483 -3.42617
H 7.90788 -3.58983 2.12855
H 6.04665 4.36615 4.19448
H 6.30394 5.61599 1.68275
H 4.22701 3.80493 2.84317
H 4.38364 3.72242 1.07598
H 4.00359 5.25729 1.79665
H 8.46279 5.37299 2.67319
H 8.73176 4.53791 4.24656
H 6.75298 6.54701 4.64084
H 7.81784 7.20051 3.44757
H 6.98138 5.35239 -2.58765
H 6.82461 4.59301 -4.13619
H 8.44851 5.11364 -3.62762
H 7.97939 3.52908 -5.72046
H 9.34821 2.57084 -6.52968
H 9.61924 3.62578 -5.11296
H 8.74601 -2.97345 -2.58743
H 7.17710 -4.21703 -0.38544
H 6.95816 -3.79635 -3.70795
H 5.96175 -2.54717 -2.88166
H 6.09623 -4.08738 -2.19951
H 9.31669 -5.17785 -1.31856
H 9.22290 -5.14033 0.43209
H 10.73759 -3.54580 -1.50319
H 11.34181 -4.27810 0.02765
H 10.38434 -2.72970 0.02300
H 8.13041 -3.06893 5.74564
H 7.80629 -3.94755 4.21621
H 6.43364 -3.13897 5.07311
H 6.09465 1.94049 5.69655
H 7.82553 4.37958 8.80102
H 8.13617 5.41511 7.26637
H 9.22514 4.15266 7.89292

