%nproc=24
%mem=175gb
#p cam-b3lyp/Def2SVP td=(nstates=5)

TDDFT excited states in gaussian

0 1
Mg 15.77413 1.41236 1.19875
C 15.94016 0.06579 -2.12364
C 15.09299 -1.74843 2.28505
C 15.17745 2.63313 4.06600
C 15.33200 4.55302 -0.24573
N 15.56987 -0.50983 0.12372
C 15.71516 -0.91014 -1.13047
C 15.69353 -2.45058 -1.32056
C 14.86385 -2.84383 -0.00304
C 15.22059 -1.64734 0.87665
C 13.35946 -2.84706 -0.21782
C 17.13266 -3.07552 -1.30096
C 17.21127 -4.52440 -1.78710
H 18.39480 -4.94549 -2.53169
N 15.70162 0.53608 2.97791
C 15.43352 -0.76120 3.23571
C 15.48033 -0.89849 4.69966
C 15.63518 0.45739 5.29323
C 15.48661 1.28146 4.11047
C 15.46116 -2.22972 5.39312
C 15.86459 0.93411 6.69548
O 15.72999 2.16729 7.01793
C 16.16007 -0.09890 7.69901
N 15.10998 3.28006 1.82563
C 14.98514 3.56624 3.13346
C 14.76082 5.04387 3.34952
C 15.00322 5.72810 1.92450
C 15.24910 4.46222 1.07451
C 13.38026 5.43738 3.87448
C 16.04958 6.87441 1.86307
C 17.43417 6.32352 2.11766
N 15.83713 2.22732 -0.80123
C 15.59720 3.56488 -1.18522
C 15.64074 3.60859 -2.66124
C 15.88205 2.27864 -3.03737
C 15.96176 1.46012 -1.87842
C 15.42171 4.76196 -3.46615
C 16.07689 1.37923 -4.15174
O 16.19914 1.51706 -5.36820
C 15.99733 -0.11482 -3.61519
C 17.16331 -0.87556 -4.18465
O 18.32792 -0.58136 -3.86257
O 16.70548 -1.95726 -4.84091
C 17.82551 -2.75007 -5.41432
H 14.65088 -2.65359 2.70230
H 15.07158 3.12474 5.03583
H 15.30105 5.51162 -0.76803
H 15.16975 -2.79179 -2.20544
H 15.23563 -3.76528 0.43749
H 13.09086 -2.46815 -1.19271
H 12.94996 -2.21541 0.55959
H 12.95511 -3.84725 -0.03767
H 17.45071 -3.20943 -0.25901
H 17.81896 -2.46921 -1.85953
H 16.29810 -4.83389 -2.30986
H 17.25644 -5.18110 -0.91491
H 15.17499 -3.03653 4.70715
H 14.64872 -2.19626 6.12707
H 16.39715 -2.44801 5.91172
H 15.34075 -0.81299 7.73425
H 16.38141 0.44348 8.62027
H 17.04825 -0.65455 7.37807
H 15.47593 5.44410 4.05771
H 14.08636 6.19473 1.53532
H 13.41995 6.01125 4.81956
H 12.79369 4.53707 4.00063
H 12.77042 6.01531 3.18216
H 15.85673 7.60587 2.65170
H 16.04849 7.41012 0.91967
H 17.48713 6.28414 3.20979
H 18.19223 6.98893 1.70947
H 17.52343 5.29610 1.74606
H 16.17759 4.74963 -4.24009
H 15.47128 5.67430 -2.87543
H 14.40899 4.55986 -3.82507
H 15.04136 -0.52854 -3.93851
H 17.63020 -2.84986 -6.48651
H 17.86592 -3.68269 -4.82074
H 18.80952 -2.29604 -5.41995

