%nproc=24
%mem=175gb
#p cam-b3lyp/Def2SVP td=(nstates=5)

TDDFT excited states in gaussian

0 1
Mg 0.00000 0.00000 0.00000
C -0.21700 -2.21800 2.80100
C -1.25500 2.44200 2.02600
C -0.24500 1.85000 -2.56400
C 0.14600 -2.82400 -2.03700
N -0.61700 -0.00900 2.12600
C -0.59400 -0.90800 3.10500
C -0.93600 -0.30900 4.50200
C -1.77300 0.96400 4.03200
C -1.15500 1.16800 2.66000
C -3.26300 0.68500 3.86300
C 0.34500 0.11000 5.29900
C 0.12400 0.39700 6.78700
H 1.16800 0.03300 7.73300
N -0.18500 1.96100 -0.15200
C -0.70300 2.80000 0.77700
C -0.62000 4.15600 0.19300
C -0.18700 4.01500 -1.22500
C -0.21400 2.58300 -1.38000
C -0.88700 5.40600 0.97400
C 0.18100 5.01300 -2.27700
O 0.30300 4.69000 -3.50800
C 0.31000 6.41400 -1.83700
N -0.26500 -0.41300 -2.02900
C -0.27900 0.56900 -2.93700
C -0.19600 0.02400 -4.33200
C 0.12400 -1.53300 -4.18000
C 0.08600 -1.63200 -2.63500
C -1.45100 0.20500 -5.19700
C 1.37300 -2.07000 -4.92300
C 2.62600 -1.49000 -4.30600
N 0.15000 -2.14400 0.30300
C 0.17300 -3.13600 -0.68800
C 0.17300 -4.43800 0.00400
C 0.13300 -4.11100 1.35800
C 0.08300 -2.69500 1.50200
C 0.14900 -5.71500 -0.62300
C 0.09600 -4.62900 2.71600
O 0.20800 -5.74700 3.22100
C -0.25500 -3.42800 3.70100
C 0.71700 -3.48200 4.84800
O 1.93100 -3.25500 4.66900
O 0.03800 -3.55600 6.00300
C 0.94300 -3.58300 7.18300
H -1.85900 3.22000 2.49700
H -0.21800 2.45300 -3.47400
H 0.27600 -3.74700 -2.60500
H -1.55400 -0.94900 5.13200
H -1.58500 1.83100 4.66500
H -3.48400 -0.37700 3.96900
H -3.51100 1.02700 2.85800
H -3.85200 1.30100 4.54300
H 0.66900 1.09600 4.96600
H 1.13000 -0.63900 5.18900
H -0.84400 0.02600 7.12500
H 0.06200 1.47700 6.92100
H -1.34400 5.18600 1.93800
H -1.65100 5.96300 0.43200
H 0.00700 6.02000 1.08400
H -0.63500 6.74400 -1.40500
H 0.66500 6.97000 -2.70400
H 1.04800 6.46600 -1.03600
H 0.60800 0.50100 -4.89100
H -0.69200 -2.15600 -4.54700
H -1.26700 0.74000 -6.12900
H -2.20400 0.71400 -4.59600
H -1.96700 -0.72000 -5.45300
H 1.35600 -1.75900 -5.96700
H 1.45200 -3.15700 -4.90200
H 2.71400 -0.52200 -4.79800
H 3.48700 -2.12100 -4.52900
H 2.49500 -1.30300 -3.24000
H 0.86700 -6.33300 -0.08400
H 0.40400 -5.64200 -1.68000
H -0.89100 -5.99900 -0.46300
H -1.28300 -3.58100 4.02800
H 0.69800 -4.47800 7.75500
H 0.83300 -2.61900 7.68000
H 2.00000 -3.75400 6.97600
Mg 15.75867 1.41603 1.20423
C 15.62281 4.13757 3.53957
C 16.54966 -0.60576 3.83506
C 16.32710 -0.90739 -0.88049
C 16.08939 3.78774 -1.32783
N 16.02211 1.82938 3.36108
C 15.88466 2.88976 4.14277
C 15.95679 2.58217 5.66255
C 16.80499 1.22037 5.59228
C 16.41248 0.76003 4.18989
C 18.30768 1.44530 5.61804
C 14.53941 2.34422 6.29216
C 14.50698 2.34492 7.82210
H 13.33484 2.90007 8.49319
N 15.86829 -0.54786 1.46824
C 16.18065 -1.19950 2.60802
C 16.14496 -2.63201 2.27516
C 15.94764 -2.76752 0.80634
C 16.06337 -1.38250 0.39594
C 16.21160 -3.71125 3.31642
C 15.70872 -3.94965 -0.08342
O 15.80357 -3.86264 -1.35867
C 15.45232 -5.23308 0.58631
N 16.36296 1.42326 -0.78502
C 16.48403 0.27553 -1.47494
C 16.65991 0.54224 -2.95086
C 16.38848 2.10688 -3.14004
C 16.18116 2.50815 -1.66308
C 18.02892 0.18954 -3.53209
C 15.30422 2.51293 -4.17549
C 13.93991 2.07641 -3.69226
N 15.65962 3.57003 1.06810
C 15.85310 4.36162 -0.08517
C 15.80154 5.77459 0.34295
C 15.60304 5.70624 1.73018
C 15.55583 4.34658 2.14079
C 15.97841 6.90668 -0.50157
C 15.43333 6.47512 2.94209
O 15.30113 7.67061 3.20104
C 15.56505 5.49399 4.18564
C 14.42256 5.77568 5.12259
O 13.25023 5.54623 4.77674
O 14.91327 6.06202 6.34226
C 13.81775 6.33797 7.30947
H 17.02356 -1.28177 4.54732
H 16.42084 -1.66976 -1.65733
H 16.08603 4.58731 -2.07171
H 16.48771 3.32095 6.25085
H 16.46611 0.50507 6.33718
H 18.55914 2.49389 5.56003
H 18.69935 0.91429 4.76033
H 18.74595 0.96347 6.49672
H 14.23064 1.30896 6.09816
H 13.83078 3.05592 5.91538
H 15.42762 2.75611 8.25370
H 14.48762 1.30900 8.16925
H 16.52145 -3.31216 4.29014
H 17.02574 -4.38465 3.02734
H 15.28574 -4.28609 3.38710
H 16.29515 -5.48068 1.22725
H 15.21714 -5.93814 -0.21335
H 14.58175 -5.11796 1.24164
H 15.93502 -0.01312 -3.53328
H 17.28753 2.63741 -3.48658
H 17.97433 -0.52544 -4.37464
H 18.64573 -0.20674 -2.73645
H 18.61605 1.03828 -3.87868
H 15.47609 1.99971 -5.12482
H 15.28324 3.57738 -4.38404
H 13.89317 1.02744 -3.99979
H 13.15828 2.66316 -4.17060
H 13.88331 2.10189 -2.59782
H 15.21991 7.62554 -0.22154
H 15.90108 6.63487 -1.55224
H 16.99569 7.19800 -0.22674
H 16.53283 5.68364 4.65149
H 14.01149 7.32603 7.73828
H 13.81110 5.47890 8.00640
H 12.81913 6.47263 6.91062

