%nproc=24
%mem=175gb
#p cam-b3lyp/Def2SVP td=(nstates=5)

TDDFT excited states in gaussian

0 1
Mg 31.54062 2.83539 2.38935
C 31.33870 5.10918 -0.37980
C 31.05504 0.30501 0.15418
C 31.26361 0.84965 4.84852
C 30.86905 5.54112 4.48070
N 31.24836 2.83359 0.19690
C 31.25202 3.75277 -0.75675
C 31.23830 3.18204 -2.20023
C 30.57827 1.75194 -1.88710
C 31.01305 1.59555 -0.43136
C 29.05939 1.76712 -1.93295
C 32.68163 3.03031 -2.79672
C 32.73059 2.77268 -4.30437
H 33.82572 3.35537 -5.07485
N 31.69640 0.85848 2.46757
C 31.48623 -0.01481 1.46036
C 31.70866 -1.35125 2.03363
C 31.90601 -1.20513 3.50142
C 31.60235 0.20187 3.66945
C 31.79784 -2.59233 1.19387
C 32.29036 -2.17451 4.57789
O 32.17067 -1.88330 5.82034
C 32.72276 -3.50816 4.13527
N 30.91878 3.10350 4.35500
C 30.94400 2.08549 5.23303
C 30.71785 2.57578 6.64330
C 30.77641 4.17166 6.55792
C 30.94478 4.33741 5.03162
C 29.40166 2.14910 7.29290
C 31.78544 4.89004 7.49519
C 33.20098 4.56254 7.07761
N 31.35046 4.97452 2.15265
C 31.04055 5.91944 3.15524
C 30.90824 7.23205 2.49043
C 31.12940 6.95362 1.13321
C 31.36178 5.56222 0.96145
C 30.57287 8.45855 3.13024
C 31.20861 7.51870 -0.19461
O 31.18330 8.65880 -0.65643
C 31.22247 6.33000 -1.24969
C 32.32757 6.59617 -2.23479
O 33.51612 6.58756 -1.86886
O 31.81662 6.60101 -3.47949
C 32.87627 6.85012 -4.49285
H 30.68328 -0.54018 -0.42575
H 31.26363 0.22635 5.74572
H 30.75768 6.44974 5.07625
H 30.62028 3.73156 -2.90012
H 31.01760 0.97095 -2.50226
H 28.66991 2.76717 -2.05270
H 28.73245 1.34390 -0.99219
H 28.69892 1.08764 -2.71058
H 33.12333 2.09414 -2.43170
H 33.28496 3.88399 -2.55623
H 31.76822 2.97747 -4.78899
H 32.89156 1.70448 -4.46883
H 31.44840 -2.41114 0.16993
H 31.07747 -3.30837 1.60401
H 32.79273 -3.04238 1.21172
H 31.92754 -3.97202 3.55653
H 33.04087 -4.02782 5.04115
H 33.57745 -3.39243 3.45945
H 31.50375 2.23011 7.30359
H 29.81095 4.62938 6.81911
H 29.54165 1.60308 8.24492
H 28.85194 1.54363 6.58455
H 28.70295 2.95894 7.49578
H 31.67295 4.52916 8.52050
H 31.66218 5.96767 7.51773
H 33.38358 3.59762 7.55998
H 33.89218 5.32141 7.43870
H 33.26579 4.40708 5.99442
H 31.23194 9.21311 2.72189
H 30.67408 8.38387 4.21096
H 29.52895 8.56036 2.82179
H 30.24327 6.30638 -1.72946
H 32.55744 7.71521 -5.08247
H 33.00496 5.89281 -5.03206
H 33.84359 7.18292 -4.13509

