%nproc=24
%mem=175gb
#p cam-b3lyp/Def2SVP td=(nstates=5)

TDDFT excited states in gaussian

0 1
Mg 31.53817 2.84195 2.38690
C 34.31095 0.56821 2.53140
C 33.79610 5.38009 2.69382
C 29.09649 4.84141 2.71524
C 29.47633 0.16303 3.23418
N 33.74164 2.84695 2.57909
C 34.69304 1.92565 2.55987
C 36.13633 2.49284 2.49076
C 35.85524 3.94296 3.12085
C 34.38142 4.08991 2.74812
C 35.97010 3.97341 4.63584
C 36.66674 2.59952 1.01791
C 38.17090 2.85170 0.89276
H 38.89009 2.23434 -0.21815
N 31.45528 4.81347 2.17521
C 32.47204 5.69012 2.31295
C 31.89083 7.02071 2.07653
C 30.41540 6.87247 1.95056
C 30.25970 5.47568 2.30388
C 32.72713 8.25639 1.91186
C 29.32372 7.83258 1.58641
O 28.08765 7.54828 1.77115
C 29.74780 9.15147 1.09427
N 29.60252 2.59771 3.10520
C 28.72545 3.61674 3.08916
C 27.32634 3.13709 3.39384
C 27.40709 1.53995 3.37967
C 28.92395 1.36531 3.14723
C 26.73779 3.60487 4.72469
C 26.42405 0.79391 2.43642
C 26.77721 1.07757 0.99413
N 31.78074 0.70892 2.63062
C 30.79217 -0.22367 3.01414
C 31.46075 -1.53340 3.15570
C 32.80683 -1.26522 2.86481
C 32.96949 0.11811 2.58296
C 30.83540 -2.74760 3.55667
C 34.12901 -1.83582 2.74246
O 34.59015 -2.97581 2.78119
C 35.18377 -0.65078 2.64481
C 36.11728 -0.95261 1.50464
O 35.69768 -0.97887 0.33423
O 37.38392 -0.94525 1.95844
C 38.34774 -1.22875 0.86185
H 34.39334 6.23461 3.01316
H 28.20095 5.46671 2.73716
H 28.88538 -0.74030 3.39987
H 36.86296 1.96040 3.09266
H 36.45070 4.70879 2.63065
H 36.10626 2.98524 5.04951
H 35.04568 4.40869 4.99225
H 36.76412 4.66145 4.93994
H 36.28312 3.52289 0.56518
H 36.39805 1.72867 0.45217
H 38.69855 2.67475 1.83786
H 38.32914 3.91415 0.69230
H 33.76569 8.08320 2.21974
H 32.35102 8.99484 2.62817
H 32.66459 8.67632 0.90567
H 30.36265 9.63758 1.84801
H 28.82900 9.66363 0.80209
H 30.38391 9.00833 0.21365
H 26.63140 3.46062 2.62866
H 27.18954 1.11218 4.36938
H 25.78103 4.14886 4.61167
H 27.47112 4.22481 5.22313
H 26.56594 2.81696 5.45604
H 25.40534 1.16064 2.58442
H 26.40586 -0.27946 2.59306
H 26.28817 2.03778 0.80457
H 26.38415 0.29916 0.34327
H 27.85650 1.22824 0.87552
H 31.21246 -3.52271 2.90281
H 29.75129 -2.67324 3.50244
H 31.19089 -2.81872 4.58809
H 35.70761 -0.59891 3.60004
H 38.95023 -2.08535 1.17955
H 38.88168 -0.27713 0.67996
H 37.94597 -1.58961 -0.07772

