%nproc=24
%mem=175gb
#p cam-b3lyp/Def2SVP td=(nstates=5)

TDDFT excited states in gaussian

0 1
Mg 0.00000 0.00000 0.00000
C -0.21700 -2.21800 2.80100
C -1.25500 2.44200 2.02600
C -0.24500 1.85000 -2.56400
C 0.14600 -2.82400 -2.03700
N -0.61700 -0.00900 2.12600
C -0.59400 -0.90800 3.10500
C -0.93600 -0.30900 4.50200
C -1.77300 0.96400 4.03200
C -1.15500 1.16800 2.66000
C -3.26300 0.68500 3.86300
C 0.34500 0.11000 5.29900
C 0.12400 0.39700 6.78700
H 1.16800 0.03300 7.73300
N -0.18500 1.96100 -0.15200
C -0.70300 2.80000 0.77700
C -0.62000 4.15600 0.19300
C -0.18700 4.01500 -1.22500
C -0.21400 2.58300 -1.38000
C -0.88700 5.40600 0.97400
C 0.18100 5.01300 -2.27700
O 0.30300 4.69000 -3.50800
C 0.31000 6.41400 -1.83700
N -0.26500 -0.41300 -2.02900
C -0.27900 0.56900 -2.93700
C -0.19600 0.02400 -4.33200
C 0.12400 -1.53300 -4.18000
C 0.08600 -1.63200 -2.63500
C -1.45100 0.20500 -5.19700
C 1.37300 -2.07000 -4.92300
C 2.62600 -1.49000 -4.30600
N 0.15000 -2.14400 0.30300
C 0.17300 -3.13600 -0.68800
C 0.17300 -4.43800 0.00400
C 0.13300 -4.11100 1.35800
C 0.08300 -2.69500 1.50200
C 0.14900 -5.71500 -0.62300
C 0.09600 -4.62900 2.71600
O 0.20800 -5.74700 3.22100
C -0.25500 -3.42800 3.70100
C 0.71700 -3.48200 4.84800
O 1.93100 -3.25500 4.66900
O 0.03800 -3.55600 6.00300
C 0.94300 -3.58300 7.18300
H -1.85900 3.22000 2.49700
H -0.21800 2.45300 -3.47400
H 0.27600 -3.74700 -2.60500
H -1.55400 -0.94900 5.13200
H -1.58500 1.83100 4.66500
H -3.48400 -0.37700 3.96900
H -3.51100 1.02700 2.85800
H -3.85200 1.30100 4.54300
H 0.66900 1.09600 4.96600
H 1.13000 -0.63900 5.18900
H -0.84400 0.02600 7.12500
H 0.06200 1.47700 6.92100
H -1.34400 5.18600 1.93800
H -1.65100 5.96300 0.43200
H 0.00700 6.02000 1.08400
H -0.63500 6.74400 -1.40500
H 0.66500 6.97000 -2.70400
H 1.04800 6.46600 -1.03600
H 0.60800 0.50100 -4.89100
H -0.69200 -2.15600 -4.54700
H -1.26700 0.74000 -6.12900
H -2.20400 0.71400 -4.59600
H -1.96700 -0.72000 -5.45300
H 1.35600 -1.75900 -5.96700
H 1.45200 -3.15700 -4.90200
H 2.71400 -0.52200 -4.79800
H 3.48700 -2.12100 -4.52900
H 2.49500 -1.30300 -3.24000
H 0.86700 -6.33300 -0.08400
H 0.40400 -5.64200 -1.68000
H -0.89100 -5.99900 -0.46300
H -1.28300 -3.58100 4.02800
H 0.69800 -4.47800 7.75500
H 0.83300 -2.61900 7.68000
H 2.00000 -3.75400 6.97600
Mg 13.13458 1.19078 1.00382
C 15.37669 1.18338 3.80596
C 10.60722 0.59298 3.21508
C 11.20499 0.74406 -1.47499
C 15.90612 0.64748 -1.03802
N 13.11945 0.94140 3.20151
C 14.02295 1.02031 4.16682
C 13.43358 0.99924 5.60270
C 12.05144 0.24613 5.28430
C 11.88939 0.64219 3.81816
C 12.15942 -1.26774 5.36097
C 13.18479 2.44168 6.16793
C 12.90313 2.50375 7.67078
H 13.40623 3.64750 8.42656
N 11.15315 1.22251 0.89665
C 10.28015 0.97825 1.89640
C 8.94088 1.10651 1.30134
C 9.09553 1.28412 -0.16810
C 10.52081 1.06483 -0.31157
C 7.68480 1.13501 2.12284
C 8.11980 1.58692 -1.26467
O 8.43555 1.46148 -2.50055
C 6.75589 1.94452 -0.84832
N 13.46851 0.54884 -0.94521
C 12.46353 0.49409 -1.83680
C 12.98690 0.27148 -3.23570
C 14.57477 0.43023 -3.13066
C 14.70802 0.63799 -1.60604
C 12.65137 -1.08089 -3.86413
C 15.24300 1.46343 -4.07863
C 14.82305 2.86382 -3.69401
N 15.27776 1.13785 1.27224
C 16.25418 0.86763 0.28854
C 17.56282 0.82959 0.97297
C 17.25194 1.05931 2.32170
C 15.84657 1.20849 2.47054
C 18.81665 0.55839 0.35614
C 17.79205 1.19895 3.65493
O 18.92483 1.25311 4.13202
C 16.58980 1.15968 4.69389
C 16.77334 2.29796 5.65989
O 16.69683 3.47640 5.26998
O 16.79184 1.81244 6.91460
C 16.96076 2.90485 7.90955
H 9.77831 0.18096 3.79130
H 10.59575 0.68821 -2.38009
H 16.82828 0.58101 -1.61928
H 14.01004 0.43001 6.32204
H 11.23618 0.64814 5.88020
H 13.17974 -1.59226 5.50160
H 11.77061 -1.63834 4.42154
H 11.49238 -1.65443 6.13676
H 12.22852 2.81752 5.78187
H 14.00307 3.09188 5.92648
H 13.15981 1.56543 8.17735
H 11.82480 2.60152 7.81799
H 7.87250 0.81730 3.15591
H 7.02039 0.36396 1.71800
H 7.17466 2.09965 2.07906
H 6.33363 1.13348 -0.25978
H 6.23062 2.21233 -1.76716
H 6.80912 2.81763 -0.18843
H 12.60298 1.02159 -3.91617
H 15.09473 -0.50995 -3.36633
H 12.11142 -0.99335 -4.82583
H 12.07082 -1.65319 -3.15281
H 13.50549 -1.73199 -4.04227
H 14.90441 1.30905 -5.10610
H 16.32638 1.40662 -4.08460
H 13.85572 2.97706 -4.19253
H 15.54302 3.59351 -4.05903
H 14.64844 2.93982 -2.61448
H 19.52330 1.27062 0.76094
H 18.75133 0.63388 -0.72729
H 18.97811 -0.47108 0.68689
H 16.61965 0.19035 5.19297
H 17.83532 2.65157 8.51673
H 15.98974 2.98450 8.43350
H 17.23846 3.88380 7.53673

