%nproc=24
%mem=175gb
#p cam-b3lyp/Def2SVP td=(nstates=5)

TDDFT excited states in gaussian

0 1
Mg 0.00000 0.00000 0.00000
C -0.21700 -2.21800 2.80100
C -1.25500 2.44200 2.02600
C -0.24500 1.85000 -2.56400
C 0.14600 -2.82400 -2.03700
N -0.61700 -0.00900 2.12600
C -0.59400 -0.90800 3.10500
C -0.93600 -0.30900 4.50200
C -1.77300 0.96400 4.03200
C -1.15500 1.16800 2.66000
C -3.26300 0.68500 3.86300
C 0.34500 0.11000 5.29900
C 0.12400 0.39700 6.78700
H 1.16800 0.03300 7.73300
N -0.18500 1.96100 -0.15200
C -0.70300 2.80000 0.77700
C -0.62000 4.15600 0.19300
C -0.18700 4.01500 -1.22500
C -0.21400 2.58300 -1.38000
C -0.88700 5.40600 0.97400
C 0.18100 5.01300 -2.27700
O 0.30300 4.69000 -3.50800
C 0.31000 6.41400 -1.83700
N -0.26500 -0.41300 -2.02900
C -0.27900 0.56900 -2.93700
C -0.19600 0.02400 -4.33200
C 0.12400 -1.53300 -4.18000
C 0.08600 -1.63200 -2.63500
C -1.45100 0.20500 -5.19700
C 1.37300 -2.07000 -4.92300
C 2.62600 -1.49000 -4.30600
N 0.15000 -2.14400 0.30300
C 0.17300 -3.13600 -0.68800
C 0.17300 -4.43800 0.00400
C 0.13300 -4.11100 1.35800
C 0.08300 -2.69500 1.50200
C 0.14900 -5.71500 -0.62300
C 0.09600 -4.62900 2.71600
O 0.20800 -5.74700 3.22100
C -0.25500 -3.42800 3.70100
C 0.71700 -3.48200 4.84800
O 1.93100 -3.25500 4.66900
O 0.03800 -3.55600 6.00300
C 0.94300 -3.58300 7.18300
H -1.85900 3.22000 2.49700
H -0.21800 2.45300 -3.47400
H 0.27600 -3.74700 -2.60500
H -1.55400 -0.94900 5.13200
H -1.58500 1.83100 4.66500
H -3.48400 -0.37700 3.96900
H -3.51100 1.02700 2.85800
H -3.85200 1.30100 4.54300
H 0.66900 1.09600 4.96600
H 1.13000 -0.63900 5.18900
H -0.84400 0.02600 7.12500
H 0.06200 1.47700 6.92100
H -1.34400 5.18600 1.93800
H -1.65100 5.96300 0.43200
H 0.00700 6.02000 1.08400
H -0.63500 6.74400 -1.40500
H 0.66500 6.97000 -2.70400
H 1.04800 6.46600 -1.03600
H 0.60800 0.50100 -4.89100
H -0.69200 -2.15600 -4.54700
H -1.26700 0.74000 -6.12900
H -2.20400 0.71400 -4.59600
H -1.96700 -0.72000 -5.45300
H 1.35600 -1.75900 -5.96700
H 1.45200 -3.15700 -4.90200
H 2.71400 -0.52200 -4.79800
H 3.48700 -2.12100 -4.52900
H 2.49500 -1.30300 -3.24000
H 0.86700 -6.33300 -0.08400
H 0.40400 -5.64200 -1.68000
H -0.89100 -5.99900 -0.46300
H -1.28300 -3.58100 4.02800
H 0.69800 -4.47800 7.75500
H 0.83300 -2.61900 7.68000
H 2.00000 -3.75400 6.97600
Mg 8.92564 0.80384 0.68488
C 9.70342 3.32548 3.11705
C 8.80630 -1.43063 3.25927
C 8.68571 -1.51373 -1.46889
C 10.21157 2.94686 -1.74402
N 9.23229 1.03802 2.86281
C 9.46219 2.05485 3.67985
C 9.35244 1.70540 5.18830
C 9.64206 0.12881 5.09159
C 9.16669 -0.11977 3.66159
C 11.11958 -0.21763 5.17077
C 7.92197 1.99228 5.76577
C 7.82815 1.96760 7.29297
H 6.91563 2.89974 7.94940
N 8.29366 -1.06758 0.87708
C 8.29632 -1.81608 2.00003
C 7.74989 -3.12564 1.61195
C 7.57814 -3.14288 0.13380
C 8.21252 -1.88888 -0.21992
C 7.37106 -4.17828 2.61289
C 6.95835 -4.13122 -0.80707
O 7.13179 -4.05432 -2.07468
C 6.21985 -5.24525 -0.19466
N 9.57278 0.63595 -1.28372
C 9.29169 -0.45820 -2.01292
C 9.61493 -0.23938 -3.47169
C 9.94655 1.31905 -3.60918
C 9.83989 1.73238 -2.12487
C 10.78106 -1.05830 -4.02477
C 9.13213 2.12182 -4.66035
C 7.68401 2.20819 -4.23506
N 9.63206 2.84487 0.62797
C 10.15133 3.53697 -0.48802
C 10.60555 4.85826 -0.00814
C 10.33801 4.83423 1.36893
C 9.77660 3.57848 1.72587
C 11.22179 5.86530 -0.80328
C 10.41268 5.58166 2.60362
O 10.71903 6.73481 2.90385
C 10.12195 4.59121 3.81230
C 9.12521 5.25187 4.72475
O 7.96629 5.47995 4.33554
O 9.63541 5.30699 5.96854
C 8.67893 5.94424 6.91241
H 8.96792 -2.25099 3.95911
H 8.52470 -2.23767 -2.27105
H 10.53381 3.70906 -2.45668
H 10.09290 2.18141 5.81990
H 9.03289 -0.42877 5.79826
H 11.74150 0.66512 5.16027
H 11.32383 -0.83465 4.30555
H 11.31261 -0.84849 6.04317
H 7.26228 1.14920 5.52336
H 7.54143 2.92428 5.39537
H 8.81659 1.99921 7.76723
H 7.41440 1.00389 7.59969
H 7.76503 -3.94564 3.60991
H 7.89155 -5.09742 2.32282
H 6.29653 -4.37223 2.63394
H 6.88481 -5.80206 0.46128
H 5.77535 -5.79395 -1.02726
H 5.42616 -4.83286 0.43828
H 8.76156 -0.47351 -4.09623
H 10.99138 1.48846 -3.90826
H 10.50244 -1.68185 -4.89520
H 11.17489 -1.67357 -3.22673
H 11.65328 -0.47811 -4.32111
H 9.14259 1.60471 -5.62297
H 9.51311 3.12356 -4.82875
H 7.26739 1.25842 -4.58357
H 7.19391 3.05353 -4.71384
H 7.59505 2.22608 -3.14262
H 10.77009 6.80635 -0.51886
H 11.09385 5.66694 -1.86538
H 12.26244 5.75367 -0.48729
H 11.07122 4.39876 4.31372
H 9.20460 6.78020 7.38413
H 8.32745 5.13159 7.57561
H 7.81758 6.44774 6.48932

