%nproc=24
%mem=175gb
#p cam-b3lyp/Def2SVP td=(nstates=5)

TDDFT excited states in gaussian

0 1
Mg 13.14638 1.18312 0.99090
C 12.74033 4.49744 -0.32419
C 12.60782 0.02352 -2.17136
C 13.05059 -1.75273 2.19051
C 12.51771 2.51004 4.15156
N 12.73864 2.22433 -0.91748
C 12.66841 3.48832 -1.30701
C 12.59287 3.68412 -2.84503
C 11.98698 2.25046 -3.24048
C 12.50203 1.43277 -2.05778
C 10.46791 2.21311 -3.22157
C 14.00600 3.90800 -3.48920
C 13.98165 4.41166 -4.93402
H 15.01927 5.34523 -5.36326
N 13.35641 -0.57664 0.09776
C 13.11554 -0.86523 -1.19838
C 13.40197 -2.30009 -1.35103
C 13.67294 -2.87030 -0.00338
C 13.34285 -1.73490 0.83448
C 13.47818 -2.97682 -2.68881
C 14.13829 -4.21883 0.45608
O 14.07715 -4.56866 1.68763
C 14.58050 -5.15153 -0.59083
N 12.62281 0.44045 2.86084
C 12.72039 -0.87218 3.13545
C 12.55678 -1.13384 4.61368
C 12.57006 0.30630 5.30896
C 12.65314 1.19505 4.04856
C 11.28811 -1.88325 5.02018
C 13.60864 0.53131 6.44183
C 15.00799 0.51385 5.87005
N 12.88953 3.15954 1.82508
C 12.60914 3.48811 3.16951
C 12.40842 4.95057 3.22752
C 12.56447 5.37176 1.89834
C 12.82281 4.24840 1.06718
C 12.07625 5.69912 4.39176
C 12.55888 6.50994 1.00771
O 12.48013 7.72875 1.15616
C 12.54716 5.97921 -0.49049
C 13.59144 6.73981 -1.26087
O 14.79752 6.61282 -0.98544
O 13.01538 7.31954 -2.32972
C 14.01322 8.07666 -3.13152
H 12.22754 -0.45418 -3.07473
H 13.11397 -2.73048 2.67368
H 12.41491 3.01256 5.11571
H 11.92487 4.47263 -3.17031
H 12.41289 1.88475 -4.17119
H 10.04728 3.12708 -2.82931
H 10.20210 1.37374 -2.59240
H 10.08422 1.97622 -4.21806
H 14.49010 2.93420 -3.63782
H 14.59927 4.56782 -2.88646
H 12.99008 4.77833 -5.22606
H 14.16085 3.56411 -5.60003
H 13.07054 -2.34149 -3.48479
H 12.79900 -3.83544 -2.65197
H 14.48376 -3.33151 -2.92474
H 13.76785 -5.31646 -1.29429
H 14.95925 -6.02757 -0.06075
H 15.39500 -4.68361 -1.15497
H 13.38507 -1.71688 4.99721
H 11.60843 0.53461 5.79163
H 11.49215 -2.81312 5.58391
H 10.71728 -2.09785 4.12651
H 10.58071 -1.30600 5.61311
H 13.55981 -0.28400 7.16780
H 13.45934 1.45732 6.98699
H 15.24038 -0.55408 5.81897
H 15.69777 1.03680 6.52941
H 15.01932 0.90305 4.84533
H 12.69335 6.58765 4.37719
H 12.23638 5.11772 5.29735
H 11.01522 5.88689 4.20676
H 11.54486 6.14292 -0.88819
H 13.64169 9.10243 -3.21789
H 14.13754 7.50522 -4.07053
H 14.98933 8.24169 -2.69057

