%nproc=24
%mem=175gb
#p cam-b3lyp/Def2SVP td=(nstates=5)

TDDFT excited states in gaussian

0 1
Mg 0.00000 0.00000 0.00000
C -0.21700 -2.21800 2.80100
C -1.25500 2.44200 2.02600
C -0.24500 1.85000 -2.56400
C 0.14600 -2.82400 -2.03700
N -0.61700 -0.00900 2.12600
C -0.59400 -0.90800 3.10500
C -0.93600 -0.30900 4.50200
C -1.77300 0.96400 4.03200
C -1.15500 1.16800 2.66000
C -3.26300 0.68500 3.86300
C 0.34500 0.11000 5.29900
C 0.12400 0.39700 6.78700
H 1.16800 0.03300 7.73300
N -0.18500 1.96100 -0.15200
C -0.70300 2.80000 0.77700
C -0.62000 4.15600 0.19300
C -0.18700 4.01500 -1.22500
C -0.21400 2.58300 -1.38000
C -0.88700 5.40600 0.97400
C 0.18100 5.01300 -2.27700
O 0.30300 4.69000 -3.50800
C 0.31000 6.41400 -1.83700
N -0.26500 -0.41300 -2.02900
C -0.27900 0.56900 -2.93700
C -0.19600 0.02400 -4.33200
C 0.12400 -1.53300 -4.18000
C 0.08600 -1.63200 -2.63500
C -1.45100 0.20500 -5.19700
C 1.37300 -2.07000 -4.92300
C 2.62600 -1.49000 -4.30600
N 0.15000 -2.14400 0.30300
C 0.17300 -3.13600 -0.68800
C 0.17300 -4.43800 0.00400
C 0.13300 -4.11100 1.35800
C 0.08300 -2.69500 1.50200
C 0.14900 -5.71500 -0.62300
C 0.09600 -4.62900 2.71600
O 0.20800 -5.74700 3.22100
C -0.25500 -3.42800 3.70100
C 0.71700 -3.48200 4.84800
O 1.93100 -3.25500 4.66900
O 0.03800 -3.55600 6.00300
C 0.94300 -3.58300 7.18300
H -1.85900 3.22000 2.49700
H -0.21800 2.45300 -3.47400
H 0.27600 -3.74700 -2.60500
H -1.55400 -0.94900 5.13200
H -1.58500 1.83100 4.66500
H -3.48400 -0.37700 3.96900
H -3.51100 1.02700 2.85800
H -3.85200 1.30100 4.54300
H 0.66900 1.09600 4.96600
H 1.13000 -0.63900 5.18900
H -0.84400 0.02600 7.12500
H 0.06200 1.47700 6.92100
H -1.34400 5.18600 1.93800
H -1.65100 5.96300 0.43200
H 0.00700 6.02000 1.08400
H -0.63500 6.74400 -1.40500
H 0.66500 6.97000 -2.70400
H 1.04800 6.46600 -1.03600
H 0.60800 0.50100 -4.89100
H -0.69200 -2.15600 -4.54700
H -1.26700 0.74000 -6.12900
H -2.20400 0.71400 -4.59600
H -1.96700 -0.72000 -5.45300
H 1.35600 -1.75900 -5.96700
H 1.45200 -3.15700 -4.90200
H 2.71400 -0.52200 -4.79800
H 3.48700 -2.12100 -4.52900
H 2.49500 -1.30300 -3.24000
H 0.86700 -6.33300 -0.08400
H 0.40400 -5.64200 -1.68000
H -0.89100 -5.99900 -0.46300
H -1.28300 -3.58100 4.02800
H 0.69800 -4.47800 7.75500
H 0.83300 -2.61900 7.68000
H 2.00000 -3.75400 6.97600
Mg 15.77308 1.42341 1.20473
C 15.23891 -0.78157 3.98534
C 14.80676 3.98342 3.24119
C 15.79940 3.32307 -1.33653
C 15.58441 -1.37119 -0.86900
N 15.13002 1.46904 3.32054
C 15.02498 0.57782 4.29473
C 14.74937 1.18614 5.69600
C 14.07841 2.56878 5.23018
C 14.73480 2.70899 3.85825
C 12.57481 2.47154 5.03258
C 16.06773 1.43308 6.51023
C 15.85909 1.73407 7.99604
H 16.84266 1.23362 8.95239
N 15.84092 3.40302 1.08177
C 15.42727 4.29064 2.01038
C 15.67280 5.62111 1.43269
C 16.11220 5.44602 0.02166
C 15.91013 4.02041 -0.14238
C 15.56300 6.88768 2.23092
C 16.61703 6.40528 -1.01331
O 16.71470 6.07412 -2.24766
C 16.90517 7.77223 -0.55515
N 15.49179 1.06801 -0.82428
C 15.60814 2.06151 -1.72280
C 15.63797 1.52124 -3.13262
C 15.76126 -0.06611 -2.98189
C 15.68835 -0.18063 -1.44340
C 14.42472 1.85715 -3.99957
C 16.94319 -0.75335 -3.71906
C 18.25438 -0.33739 -3.09205
N 15.65379 -0.71567 1.48432
C 15.55768 -1.70319 0.47950
C 15.38496 -3.00245 1.16107
C 15.36936 -2.67534 2.52534
C 15.50134 -1.26911 2.68220
C 15.21904 -4.26251 0.52010
C 15.26058 -3.19876 3.86807
O 15.21760 -4.32549 4.36037
C 15.04428 -1.98272 4.86850
C 15.98718 -2.16085 6.02683
O 17.21737 -2.09703 5.85600
O 15.28235 -2.15973 7.17294
C 16.17503 -2.32256 8.35126
H 14.30443 4.82246 3.72344
H 15.91365 3.92070 -2.24387
H 15.61628 -2.30047 -1.44179
H 14.05431 0.62286 6.30704
H 14.37295 3.38921 5.87942
H 12.22132 1.45526 5.12409
H 12.38383 2.85034 4.03705
H 12.05985 3.15119 5.71757
H 16.51556 2.38175 6.18743
H 16.74376 0.60754 6.40023
H 14.84236 1.49009 8.32722
H 15.93796 2.81359 8.14583
H 15.06185 6.71562 3.19146
H 14.88380 7.55164 1.68529
H 16.52401 7.39099 2.35662
H 16.00467 8.20738 -0.12828
H 17.33949 8.28364 -1.41637
H 17.64386 7.72207 0.25259
H 16.50221 1.89135 -3.67040
H 14.87481 -0.58307 -3.37785
H 14.68964 2.38383 -4.93578
H 13.73815 2.45066 -3.41059
H 13.80924 1.00495 -4.28266
H 16.98036 -0.42732 -4.76140
H 16.87898 -1.83634 -3.72247
H 18.46443 0.62256 -3.57316
H 19.03182 -1.06676 -3.31034
H 18.13516 -0.14909 -2.01875
H 15.84003 -4.96834 1.05553
H 15.49004 -4.21193 -0.53241
H 14.14534 -4.41299 0.66075
H 14.00038 -1.99978 5.18402
H 15.80839 -3.18742 8.91276
H 16.16693 -1.34527 8.86950
H 17.20285 -2.61142 8.16526

