%nproc=24
%mem=175gb
#p cam-b3lyp/Def2SVP td=(nstates=5)

TDDFT excited states in gaussian

0 1
Mg 7.89099 0.70266 0.59991
C 8.05703 -0.64391 -2.72247
C 7.20985 -2.45813 1.68622
C 7.29431 1.92343 3.46717
C 7.44886 3.84332 -0.84456
N 7.68673 -1.21954 -0.47512
C 7.83202 -1.61984 -1.72931
C 7.81039 -3.16028 -1.91939
C 6.98071 -3.55353 -0.60187
C 7.33745 -2.35704 0.27781
C 5.47632 -3.55676 -0.81665
C 9.24952 -3.78522 -1.89979
C 9.32813 -5.23410 -2.38593
H 10.51166 -5.65519 -3.13052
N 7.81848 -0.17362 2.37908
C 7.55038 -1.47090 2.63688
C 7.59719 -1.60819 4.10082
C 7.75204 -0.25231 4.69440
C 7.60347 0.57176 3.51164
C 7.57802 -2.93942 4.79429
C 7.98145 0.22441 6.09665
O 7.84685 1.45759 6.41910
C 8.27693 -0.80860 7.10018
N 7.22684 2.57035 1.22679
C 7.10200 2.85654 2.53463
C 6.87768 4.33417 2.75068
C 7.12008 5.01840 1.32567
C 7.36596 3.75252 0.47568
C 5.49712 4.72768 3.27564
C 8.16644 6.16471 1.26424
C 9.55103 5.61382 1.51883
N 7.95399 1.51762 -1.40007
C 7.71406 2.85518 -1.78406
C 7.75760 2.89889 -3.26007
C 7.99891 1.56893 -3.63620
C 8.07862 0.75041 -2.47725
C 7.53857 4.05226 -4.06498
C 8.19375 0.66953 -4.75057
O 8.31600 0.80736 -5.96704
C 8.11419 -0.82452 -4.21402
C 9.28017 -1.58526 -4.78348
O 10.44478 -1.29106 -4.46140
O 8.82234 -2.66696 -5.43975
C 9.94237 -3.45977 -6.01315
H 6.76774 -3.36329 2.10347
H 7.18844 2.41504 4.43700
H 7.41791 4.80192 -1.36686
H 7.28661 -3.50149 -2.80427
H 7.35249 -4.47498 -0.16134
H 5.20772 -3.17785 -1.79155
H 5.06682 -2.92511 -0.03924
H 5.07197 -4.55695 -0.63650
H 9.56757 -3.91913 -0.85784
H 9.93582 -3.17891 -2.45836
H 8.41496 -5.54359 -2.90870
H 9.37330 -5.89080 -1.51374
H 7.29185 -3.74623 4.10831
H 6.76558 -2.90596 5.52824
H 8.51401 -3.15772 5.31289
H 7.45761 -1.52269 7.13542
H 8.49827 -0.26622 8.02144
H 9.16511 -1.36425 6.77924
H 7.59279 4.73440 3.45888
H 6.20322 5.48503 0.93649
H 5.53681 5.30155 4.22073
H 4.91055 3.82737 3.40180
H 4.88728 5.30561 2.58332
H 7.97359 6.89617 2.05286
H 8.16535 6.70042 0.32084
H 9.60399 5.57444 2.61096
H 10.30909 6.27923 1.11064
H 9.64029 4.58639 1.14723
H 8.29446 4.03993 -4.83892
H 7.58814 4.96460 -3.47426
H 6.52585 3.85016 -4.42390
H 7.15822 -1.23824 -4.53734
H 9.74706 -3.55956 -7.08534
H 9.98278 -4.39239 -5.41957
H 10.92638 -3.00574 -6.01878

