%nproc=24
%mem=175gb
#p cam-b3lyp/Def2SVP td=(nstates=5)

TDDFT excited states in gaussian

0 1
Mg 13.14490 1.19054 1.00165
C 12.70018 0.83491 4.54493
C 11.95120 4.36973 1.32162
C 13.09889 1.38582 -2.16492
C 13.20428 -2.28819 0.80010
N 12.44899 2.33991 2.75861
C 12.38343 2.12228 4.06348
C 12.03163 3.37641 4.90784
C 11.27633 4.22590 3.77348
C 11.95434 3.63952 2.53689
C 9.78858 3.92793 3.68898
C 13.30911 4.12324 5.42969
C 13.04371 5.17221 6.51180
H 14.03660 5.34939 7.56786
N 13.07589 2.77885 -0.18623
C 12.57822 3.99724 0.11231
C 12.74325 4.80829 -1.10388
C 13.22806 3.92191 -2.19659
C 13.13111 2.62879 -1.54966
C 12.52501 6.29329 -1.12745
C 13.68897 4.19193 -3.59689
O 13.83973 3.24739 -4.45008
C 13.86875 5.60333 -3.96722
N 12.93877 -0.23650 -0.49616
C 13.00655 0.10866 -1.79393
C 13.10866 -1.11120 -2.67819
C 13.33992 -2.34340 -1.68533
C 13.23791 -1.60226 -0.33415
C 11.89617 -1.39325 -3.56515
C 14.58494 -3.23439 -1.94750
C 15.84790 -2.44959 -1.67470
N 13.17003 -0.44877 2.40881
C 13.16827 -1.82903 2.11055
C 13.07112 -2.55193 3.39522
C 12.99933 -1.53373 4.35783
C 13.02794 -0.26577 3.71678
C 13.01012 -3.96539 3.55185
C 12.89514 -1.24327 5.76973
O 12.91980 -1.91650 6.79924
C 12.56936 0.30255 5.94496
C 13.49405 0.85608 6.99427
O 14.72046 0.90477 6.79386
O 12.76325 1.43322 7.96546
C 13.63630 2.00682 9.02405
H 11.37937 5.29694 1.27495
H 13.19272 1.39589 -3.25330
H 13.31553 -3.37422 0.82905
H 11.36340 3.19083 5.74018
H 11.49639 5.28660 3.86210
H 9.50554 3.10503 4.32839
H 9.59561 3.68520 2.65221
H 9.21046 4.83227 3.89942
H 13.69662 4.77003 4.63204
H 14.04416 3.42355 5.77721
H 12.03898 5.07648 6.94109
H 13.04257 6.16004 6.04467
H 12.01405 6.63922 -0.22044
H 11.81413 6.49924 -1.93498
H 13.44479 6.85127 -1.31545
H 12.92969 6.13465 -3.83181
H 14.28671 5.58989 -4.97569
H 14.58929 6.05694 -3.27753
H 13.95745 -1.03436 -3.34658
H 12.50203 -3.05526 -1.71733
H 12.14595 -1.44725 -4.64161
H 11.15533 -0.62570 -3.38473
H 11.34940 -2.30329 -3.32416
H 14.62434 -3.53024 -2.99872
H 14.59739 -4.14395 -1.35628
H 16.00134 -1.89722 -2.60659
H 16.67993 -3.12101 -1.47227
H 15.68965 -1.71386 -0.87764
H 13.66616 -4.21604 4.37483
H 13.30237 -4.47958 2.63863
H 11.94661 -4.09156 3.77160
H 11.52190 0.38549 6.23741
H 13.31804 1.56641 9.97401
H 13.54669 3.10475 8.92274
H 14.68615 1.73850 9.00773

