%nproc=24
%mem=175gb
#p cam-b3lyp/Def2SVP td=(nstates=5)

TDDFT excited states in gaussian

0 1
Mg 0.00000 0.00000 0.00000
C -0.21700 -2.21800 2.80100
C -1.25500 2.44200 2.02600
C -0.24500 1.85000 -2.56400
C 0.14600 -2.82400 -2.03700
N -0.61700 -0.00900 2.12600
C -0.59400 -0.90800 3.10500
C -0.93600 -0.30900 4.50200
C -1.77300 0.96400 4.03200
C -1.15500 1.16800 2.66000
C -3.26300 0.68500 3.86300
C 0.34500 0.11000 5.29900
C 0.12400 0.39700 6.78700
H 1.16800 0.03300 7.73300
N -0.18500 1.96100 -0.15200
C -0.70300 2.80000 0.77700
C -0.62000 4.15600 0.19300
C -0.18700 4.01500 -1.22500
C -0.21400 2.58300 -1.38000
C -0.88700 5.40600 0.97400
C 0.18100 5.01300 -2.27700
O 0.30300 4.69000 -3.50800
C 0.31000 6.41400 -1.83700
N -0.26500 -0.41300 -2.02900
C -0.27900 0.56900 -2.93700
C -0.19600 0.02400 -4.33200
C 0.12400 -1.53300 -4.18000
C 0.08600 -1.63200 -2.63500
C -1.45100 0.20500 -5.19700
C 1.37300 -2.07000 -4.92300
C 2.62600 -1.49000 -4.30600
N 0.15000 -2.14400 0.30300
C 0.17300 -3.13600 -0.68800
C 0.17300 -4.43800 0.00400
C 0.13300 -4.11100 1.35800
C 0.08300 -2.69500 1.50200
C 0.14900 -5.71500 -0.62300
C 0.09600 -4.62900 2.71600
O 0.20800 -5.74700 3.22100
C -0.25500 -3.42800 3.70100
C 0.71700 -3.48200 4.84800
O 1.93100 -3.25500 4.66900
O 0.03800 -3.55600 6.00300
C 0.94300 -3.58300 7.18300
H -1.85900 3.22000 2.49700
H -0.21800 2.45300 -3.47400
H 0.27600 -3.74700 -2.60500
H -1.55400 -0.94900 5.13200
H -1.58500 1.83100 4.66500
H -3.48400 -0.37700 3.96900
H -3.51100 1.02700 2.85800
H -3.85200 1.30100 4.54300
H 0.66900 1.09600 4.96600
H 1.13000 -0.63900 5.18900
H -0.84400 0.02600 7.12500
H 0.06200 1.47700 6.92100
H -1.34400 5.18600 1.93800
H -1.65100 5.96300 0.43200
H 0.00700 6.02000 1.08400
H -0.63500 6.74400 -1.40500
H 0.66500 6.97000 -2.70400
H 1.04800 6.46600 -1.03600
H 0.60800 0.50100 -4.89100
H -0.69200 -2.15600 -4.54700
H -1.26700 0.74000 -6.12900
H -2.20400 0.71400 -4.59600
H -1.96700 -0.72000 -5.45300
H 1.35600 -1.75900 -5.96700
H 1.45200 -3.15700 -4.90200
H 2.71400 -0.52200 -4.79800
H 3.48700 -2.12100 -4.52900
H 2.49500 -1.30300 -3.24000
H 0.86700 -6.33300 -0.08400
H 0.40400 -5.64200 -1.68000
H -0.89100 -5.99900 -0.46300
H -1.28300 -3.58100 4.02800
H 0.69800 -4.47800 7.75500
H 0.83300 -2.61900 7.68000
H 2.00000 -3.75400 6.97600
Mg 15.76097 1.42656 1.20340
C 18.01116 1.88920 3.96051
C 13.42827 0.40444 3.47240
C 13.90841 0.58224 -1.23023
C 18.55064 1.37679 -0.88490
N 15.82975 1.21755 3.40427
C 16.71838 1.48152 4.35032
C 16.16758 1.37560 5.79772
C 14.94638 0.37114 5.51739
C 14.68830 0.70387 4.04928
C 15.33808 -1.09402 5.61336
C 15.66177 2.75552 6.34725
C 15.39867 2.79015 7.85435
H 15.69055 4.02110 8.58376
N 13.80734 1.08421 1.13496
C 13.01262 0.69822 2.15511
C 11.66333 0.56252 1.58488
C 11.75724 0.74004 0.11030
C 13.19573 0.78946 -0.05818
C 10.43819 0.36941 2.43054
C 10.72378 0.83509 -0.97096
O 11.03673 0.74932 -2.21094
C 9.32413 0.93782 -0.53287
N 16.17686 0.82438 -0.74256
C 15.18526 0.56641 -1.61325
C 15.71763 0.42127 -3.01892
C 17.24896 0.87684 -2.94754
C 17.36631 1.13276 -1.42895
C 15.63163 -0.98088 -3.62137
C 17.69523 2.00016 -3.92307
C 17.02621 3.30350 -3.55011
N 17.88013 1.78126 1.43014
C 18.87332 1.68167 0.43128
C 20.17708 1.90181 1.09019
C 19.85121 2.09289 2.44141
C 18.44552 1.97845 2.61585
C 21.44903 1.85974 0.45261
C 20.37772 2.35483 3.76159
O 21.48799 2.62888 4.21539
C 19.22182 2.10910 4.82455
C 19.20442 3.27845 5.77051
O 18.90139 4.41457 5.36552
O 19.33480 2.82721 7.03136
C 19.31214 3.94929 8.00720
H 12.70128 -0.14551 4.07067
H 13.30544 0.39717 -2.12223
H 19.45901 1.47422 -1.48327
H 16.85267 0.93736 6.51353
H 14.08022 0.62355 6.12353
H 16.40340 -1.21890 5.73840
H 15.01013 -1.54748 4.68715
H 14.76863 -1.58522 6.40759
H 14.64560 2.93848 5.97488
H 16.33919 3.54329 6.08050
H 15.83549 1.92570 8.36900
H 14.32379 2.68652 8.02143
H 10.69950 0.11080 3.46410
H 9.92376 -0.51959 2.04987
H 9.75528 1.22032 2.38318
H 9.07166 0.07249 0.07534
H 8.74260 1.08613 -1.44484
H 9.22346 1.81692 0.11341
H 15.18831 1.07396 -3.70224
H 17.93224 0.04686 -3.18008
H 15.06883 -1.01314 -4.57336
H 15.18092 -1.63928 -2.89068
H 16.58976 -1.46328 -3.80711
H 17.37452 1.76693 -4.94136
H 18.76975 2.14745 -3.94964
H 16.04662 3.22450 -4.03098
H 17.59008 4.14872 -3.93959
H 16.85853 3.36442 -2.46853
H 22.01599 2.69889 0.83323
H 21.35256 1.90253 -0.63027
H 21.80651 0.88482 0.79466
H 19.44157 1.17152 5.33663
H 20.22876 3.87527 8.60052
H 18.35236 3.85464 8.54905
H 19.39473 4.95622 7.61513

