%nproc=24
%mem=175gb
#p cam-b3lyp/Def2SVP td=(nstates=5)

TDDFT excited states in gaussian

0 1
Mg 0.00000 0.00000 0.00000
C -0.21700 -2.21800 2.80100
C -1.25500 2.44200 2.02600
C -0.24500 1.85000 -2.56400
C 0.14600 -2.82400 -2.03700
N -0.61700 -0.00900 2.12600
C -0.59400 -0.90800 3.10500
C -0.93600 -0.30900 4.50200
C -1.77300 0.96400 4.03200
C -1.15500 1.16800 2.66000
C -3.26300 0.68500 3.86300
C 0.34500 0.11000 5.29900
C 0.12400 0.39700 6.78700
H 1.16800 0.03300 7.73300
N -0.18500 1.96100 -0.15200
C -0.70300 2.80000 0.77700
C -0.62000 4.15600 0.19300
C -0.18700 4.01500 -1.22500
C -0.21400 2.58300 -1.38000
C -0.88700 5.40600 0.97400
C 0.18100 5.01300 -2.27700
O 0.30300 4.69000 -3.50800
C 0.31000 6.41400 -1.83700
N -0.26500 -0.41300 -2.02900
C -0.27900 0.56900 -2.93700
C -0.19600 0.02400 -4.33200
C 0.12400 -1.53300 -4.18000
C 0.08600 -1.63200 -2.63500
C -1.45100 0.20500 -5.19700
C 1.37300 -2.07000 -4.92300
C 2.62600 -1.49000 -4.30600
N 0.15000 -2.14400 0.30300
C 0.17300 -3.13600 -0.68800
C 0.17300 -4.43800 0.00400
C 0.13300 -4.11100 1.35800
C 0.08300 -2.69500 1.50200
C 0.14900 -5.71500 -0.62300
C 0.09600 -4.62900 2.71600
O 0.20800 -5.74700 3.22100
C -0.25500 -3.42800 3.70100
C 0.71700 -3.48200 4.84800
O 1.93100 -3.25500 4.66900
O 0.03800 -3.55600 6.00300
C 0.94300 -3.58300 7.18300
H -1.85900 3.22000 2.49700
H -0.21800 2.45300 -3.47400
H 0.27600 -3.74700 -2.60500
H -1.55400 -0.94900 5.13200
H -1.58500 1.83100 4.66500
H -3.48400 -0.37700 3.96900
H -3.51100 1.02700 2.85800
H -3.85200 1.30100 4.54300
H 0.66900 1.09600 4.96600
H 1.13000 -0.63900 5.18900
H -0.84400 0.02600 7.12500
H 0.06200 1.47700 6.92100
H -1.34400 5.18600 1.93800
H -1.65100 5.96300 0.43200
H 0.00700 6.02000 1.08400
H -0.63500 6.74400 -1.40500
H 0.66500 6.97000 -2.70400
H 1.04800 6.46600 -1.03600
H 0.60800 0.50100 -4.89100
H -0.69200 -2.15600 -4.54700
H -1.26700 0.74000 -6.12900
H -2.20400 0.71400 -4.59600
H -1.96700 -0.72000 -5.45300
H 1.35600 -1.75900 -5.96700
H 1.45200 -3.15700 -4.90200
H 2.71400 -0.52200 -4.79800
H 3.48700 -2.12100 -4.52900
H 2.49500 -1.30300 -3.24000
H 0.86700 -6.33300 -0.08400
H 0.40400 -5.64200 -1.68000
H -0.89100 -5.99900 -0.46300
H -1.28300 -3.58100 4.02800
H 0.69800 -4.47800 7.75500
H 0.83300 -2.61900 7.68000
H 2.00000 -3.75400 6.97600
Mg 13.14557 1.17984 1.00542
C 13.30241 -2.35319 0.39540
C 12.08948 0.43670 4.16247
C 12.56599 4.27007 1.43206
C 13.09806 1.63374 -2.44964
N 12.78232 -0.74697 2.02898
C 12.93506 -2.02515 1.71709
C 12.75786 -3.00367 2.90900
C 11.83840 -2.07808 3.84536
C 12.28409 -0.70548 3.34537
C 10.35211 -2.22846 3.56668
C 14.12058 -3.35075 3.60509
C 14.06469 -4.53365 4.57431
H 15.22609 -5.41416 4.66559
N 12.90842 2.22323 2.67685
C 12.49398 1.75868 3.87422
C 12.46656 2.92482 4.77062
C 12.74018 4.14417 3.96252
C 12.72796 3.58316 2.62641
C 12.27818 2.80577 6.25512
C 12.96182 5.58006 4.33037
O 12.94583 6.51100 3.44951
C 13.10510 5.87506 5.76353
N 12.65844 2.71731 -0.30654
C 12.51173 3.97988 0.13199
C 12.43686 4.95248 -1.02075
C 12.80806 4.10335 -2.32411
C 12.95253 2.70571 -1.68292
C 11.08568 5.63667 -1.22718
C 13.97175 4.63685 -3.20381
C 15.27862 4.52936 -2.45153
N 13.37572 -0.08295 -0.73252
C 13.29482 0.30734 -2.08722
C 13.40257 -0.92072 -2.90129
C 13.51648 -1.95088 -1.95562
C 13.46184 -1.40556 -0.64447
C 13.33994 -0.98525 -4.32186
C 13.65983 -3.37674 -1.76831
O 13.84524 -4.33670 -2.51519
C 13.40053 -3.71383 -0.23680
C 14.50136 -4.62596 0.23088
O 15.67658 -4.22268 0.28395
O 13.95835 -5.74613 0.74150
C 15.01028 -6.67761 1.22893
H 11.53728 0.31928 5.09531
H 12.47363 5.35499 1.52089
H 13.19018 1.70102 -3.53576
H 12.23715 -3.92283 2.66860
H 12.09216 -2.20245 4.89488
H 10.16498 -2.84712 2.70159
H 9.98074 -1.22545 3.40199
H 9.83696 -2.59801 4.45796
H 14.38012 -2.54628 4.30524
H 14.88941 -3.51714 2.87582
H 13.14579 -5.12062 4.45575
H 14.00454 -4.14455 5.59362
H 11.93608 1.80261 6.53803
H 11.44477 3.46323 6.52543
H 13.16392 3.10844 6.81773
H 12.21390 5.54385 6.29127
H 13.34518 6.93855 5.82039
H 13.94160 5.28849 6.15953
H 13.16108 5.74908 -0.90228
H 11.96242 4.04175 -3.02478
H 11.14767 6.74107 -1.20439
H 10.40229 5.27844 -0.46877
H 10.56918 5.37059 -2.14785
H 13.82576 5.69756 -3.42233
H 14.06575 4.12221 -4.15423
H 15.28277 5.43239 -1.83379
H 16.11891 4.52015 -3.14280
H 15.27337 3.66704 -1.77475
H 14.12102 -1.66411 -4.63742
H 13.46203 -0.00150 -4.77031
H 12.32689 -1.37419 -4.45496
H 12.41997 -4.18624 -0.16680
H 14.84913 -7.63451 0.72289
H 14.92742 -6.67093 2.33203
H 16.03632 -6.46306 0.95385

