%nproc=24
%mem=175gb
#p cam-b3lyp/Def2SVP td=(nstates=5)

TDDFT excited states in gaussian

0 1
Mg 7.88993 0.70853 0.60688
C 7.98194 -2.86698 0.90066
C 6.75479 0.79415 3.82227
C 7.36939 3.81634 0.23541
C 7.92161 0.28624 -2.85236
N 7.46432 -0.89565 2.06898
C 7.59539 -2.21351 2.08935
C 7.37304 -2.86052 3.48273
C 6.45538 -1.71580 4.13572
C 6.94082 -0.51883 3.32068
C 4.97205 -1.90703 3.86646
C 8.71364 -3.04473 4.27700
C 8.61256 -3.94717 5.50872
H 9.75243 -4.79560 5.84539
N 7.64211 2.13982 1.95913
C 7.19371 1.99562 3.22381
C 7.17374 3.34890 3.80035
C 7.49002 4.32335 2.72093
C 7.49237 3.44682 1.56691
C 6.95307 3.60727 5.26253
C 7.73547 5.80184 2.72474
O 7.75745 6.48354 1.63956
C 7.85638 6.44293 4.04227
N 7.46283 1.87743 -1.05852
C 7.33490 3.21170 -0.95225
C 7.30437 3.86682 -2.31250
C 7.68305 2.71333 -3.35349
C 7.78413 1.51787 -2.38084
C 5.97284 4.49947 -2.71644
C 8.87549 2.99153 -4.30918
C 10.16436 3.05421 -3.52160
N 8.12731 -0.95168 -0.75526
C 8.08211 -0.91068 -2.16606
C 8.17938 -2.30465 -2.64546
C 8.25182 -3.06782 -1.47038
C 8.18281 -2.21164 -0.33826
C 8.14386 -2.72075 -4.00623
C 8.36028 -4.40388 -0.93014
O 8.53967 -5.52276 -1.40937
C 8.06304 -4.34376 0.63013
C 9.13413 -5.12786 1.33757
O 10.31656 -4.74308 1.31767
O 8.55670 -6.07620 2.09758
C 9.57810 -6.87332 2.82776
H 6.18158 0.92223 4.74091
H 7.29893 4.89043 0.04875
H 8.03695 0.07875 -3.91835
H 6.83735 -3.80208 3.46610
H 6.68527 -1.57829 5.18910
H 4.78887 -2.71897 3.17847
H 4.62601 -0.97105 3.44783
H 4.43121 -2.03404 4.80863
H 8.97655 -2.09523 4.76081
H 9.49314 -3.40026 3.63155
H 7.68365 -4.53027 5.51738
H 8.54047 -3.31501 6.39709
H 6.58359 2.71213 5.77791
H 6.12894 4.32471 5.33966
H 7.83374 4.02650 5.75380
H 6.94777 6.26835 4.61358
H 8.11840 7.48293 3.83826
H 8.67179 5.96040 4.59262
H 8.04326 4.65600 -2.37832
H 6.85049 2.49240 -4.03750
H 6.05842 5.57345 -2.96806
H 5.26673 4.35296 -1.90992
H 5.46923 4.02033 -3.55430
H 8.75707 3.96631 -4.78870
H 8.97730 2.25448 -5.09872
H 10.17580 4.08268 -3.14849
H 11.01795 2.85920 -4.16766
H 10.12675 2.38834 -2.65162
H 8.91613 -3.46938 -4.12314
H 8.29633 -1.88220 -4.68251
H 7.12545 -3.11424 -4.06335
H 7.07121 -4.76789 0.79125
H 9.40631 -7.92352 2.57231
H 9.47330 -6.59014 3.89198
H 10.61388 -6.75079 2.53348

