%nproc=24
%mem=175gb
#p cam-b3lyp/Def2SVP td=(nstates=5)

TDDFT excited states in gaussian

0 1
Mg 0.00000 0.00000 0.00000
C -0.21700 -2.21800 2.80100
C -1.25500 2.44200 2.02600
C -0.24500 1.85000 -2.56400
C 0.14600 -2.82400 -2.03700
N -0.61700 -0.00900 2.12600
C -0.59400 -0.90800 3.10500
C -0.93600 -0.30900 4.50200
C -1.77300 0.96400 4.03200
C -1.15500 1.16800 2.66000
C -3.26300 0.68500 3.86300
C 0.34500 0.11000 5.29900
C 0.12400 0.39700 6.78700
H 1.16800 0.03300 7.73300
N -0.18500 1.96100 -0.15200
C -0.70300 2.80000 0.77700
C -0.62000 4.15600 0.19300
C -0.18700 4.01500 -1.22500
C -0.21400 2.58300 -1.38000
C -0.88700 5.40600 0.97400
C 0.18100 5.01300 -2.27700
O 0.30300 4.69000 -3.50800
C 0.31000 6.41400 -1.83700
N -0.26500 -0.41300 -2.02900
C -0.27900 0.56900 -2.93700
C -0.19600 0.02400 -4.33200
C 0.12400 -1.53300 -4.18000
C 0.08600 -1.63200 -2.63500
C -1.45100 0.20500 -5.19700
C 1.37300 -2.07000 -4.92300
C 2.62600 -1.49000 -4.30600
N 0.15000 -2.14400 0.30300
C 0.17300 -3.13600 -0.68800
C 0.17300 -4.43800 0.00400
C 0.13300 -4.11100 1.35800
C 0.08300 -2.69500 1.50200
C 0.14900 -5.71500 -0.62300
C 0.09600 -4.62900 2.71600
O 0.20800 -5.74700 3.22100
C -0.25500 -3.42800 3.70100
C 0.71700 -3.48200 4.84800
O 1.93100 -3.25500 4.66900
O 0.03800 -3.55600 6.00300
C 0.94300 -3.58300 7.18300
H -1.85900 3.22000 2.49700
H -0.21800 2.45300 -3.47400
H 0.27600 -3.74700 -2.60500
H -1.55400 -0.94900 5.13200
H -1.58500 1.83100 4.66500
H -3.48400 -0.37700 3.96900
H -3.51100 1.02700 2.85800
H -3.85200 1.30100 4.54300
H 0.66900 1.09600 4.96600
H 1.13000 -0.63900 5.18900
H -0.84400 0.02600 7.12500
H 0.06200 1.47700 6.92100
H -1.34400 5.18600 1.93800
H -1.65100 5.96300 0.43200
H 0.00700 6.02000 1.08400
H -0.63500 6.74400 -1.40500
H 0.66500 6.97000 -2.70400
H 1.04800 6.46600 -1.03600
H 0.60800 0.50100 -4.89100
H -0.69200 -2.15600 -4.54700
H -1.26700 0.74000 -6.12900
H -2.20400 0.71400 -4.59600
H -1.96700 -0.72000 -5.45300
H 1.35600 -1.75900 -5.96700
H 1.45200 -3.15700 -4.90200
H 2.71400 -0.52200 -4.79800
H 3.48700 -2.12100 -4.52900
H 2.49500 -1.30300 -3.24000
H 0.86700 -6.33300 -0.08400
H 0.40400 -5.64200 -1.68000
H -0.89100 -5.99900 -0.46300
H -1.28300 -3.58100 4.02800
H 0.69800 -4.47800 7.75500
H 0.83300 -2.61900 7.68000
H 2.00000 -3.75400 6.97600
Mg 7.87752 0.70402 0.60579
C 6.81631 3.27135 2.87773
C 9.43726 -0.78301 3.24976
C 9.20102 -1.32471 -1.44361
C 7.23347 2.93272 -1.99494
N 8.03404 1.26712 2.73902
C 7.53823 2.23143 3.49969
C 7.76419 2.03008 5.02218
C 9.05272 1.07441 4.94972
C 8.81619 0.44888 3.57660
C 10.36626 1.83739 4.90714
C 6.55428 1.31136 5.71611
C 6.56960 1.35833 7.24559
H 5.29592 1.46826 7.95137
N 8.71228 -1.07010 0.91278
C 9.27704 -1.51714 2.05405
C 9.76282 -2.87380 1.75799
C 9.58568 -3.12824 0.30245
C 9.16959 -1.81455 -0.14607
C 10.25426 -3.81228 2.82156
C 9.77360 -4.34829 -0.54747
O 9.79149 -4.28111 -1.82731
C 10.02929 -5.60951 0.16348
N 8.37673 0.85738 -1.40657
C 8.89231 -0.19061 -2.07277
C 8.91313 0.06570 -3.56081
C 8.07770 1.41221 -3.77656
C 7.78110 1.76494 -2.30245
C 10.29761 0.21973 -4.19000
C 6.88972 1.35097 -4.77537
C 5.79805 0.46172 -4.22502
N 6.98620 2.66352 0.42146
C 6.83922 3.42622 -0.75785
C 6.28247 4.73625 -0.36252
C 6.16476 4.65252 1.03305
C 6.63515 3.38761 1.47830
C 6.00357 5.82093 -1.24104
C 5.75946 5.35053 2.23189
O 5.20303 6.42239 2.46692
C 6.28118 4.53485 3.49240
C 5.14394 4.41176 4.46915
O 4.12937 3.75397 4.17831
O 5.53047 4.90482 5.65989
C 4.43988 4.79483 6.66505
H 10.14830 -1.20952 3.95784
H 9.54635 -2.02805 -2.20488
H 6.91293 3.64598 -2.75730
H 8.00217 2.93423 5.56958
H 9.02428 0.31352 5.72535
H 10.21098 2.90190 4.81312
H 10.90050 1.45555 4.04700
H 10.97750 1.58451 5.77821
H 6.64389 0.22854 5.56049
H 5.62205 1.69741 5.35205
H 7.28584 2.09560 7.62818
H 6.94444 0.40202 7.61840
H 10.42382 -3.29040 3.77145
H 11.25048 -4.14927 2.51519
H 9.60859 -4.68438 2.94488
H 10.92272 -5.50494 0.77447
H 10.04724 -6.38153 -0.60822
H 9.19770 -5.79800 0.85164
H 8.42743 -0.73921 -4.09870
H 8.70658 2.22277 -4.17322
H 10.48570 -0.49668 -5.01185
H 11.04062 0.10888 -3.41142
H 10.51928 1.21112 -4.58142
H 7.21048 0.90128 -5.71826
H 6.47102 2.32422 -5.00874
H 6.13271 -0.54171 -4.50466
H 4.84109 0.70096 -4.68441
H 5.76875 0.50624 -3.13012
H 5.04199 6.22029 -0.94715
H 6.00070 5.49995 -2.28062
H 6.84916 6.47643 -1.01617
H 7.12402 5.08496 3.91261
H 4.26787 5.80041 7.06117
H 4.77169 4.02081 7.38237
H 3.45067 4.53723 6.30513

