%nproc=24
%mem=175gb
#p cam-b3lyp/Def2SVP td=(nstates=5)

TDDFT excited states in gaussian

0 1
Mg 7.88819 0.71620 0.60551
C 8.28913 -1.42301 3.45894
C 6.10630 2.81644 2.61758
C 7.13538 2.39397 -1.98018
C 8.68273 -2.02848 -1.38978
N 7.33722 0.60249 2.74461
C 7.59778 -0.22704 3.74378
C 7.15905 0.29004 5.14010
C 6.01144 1.30988 4.66917
C 6.52840 1.62947 3.26800
C 4.64478 0.65864 4.53704
C 8.31680 1.03564 5.89224
C 8.05626 1.29507 7.37769
H 9.18320 1.22853 8.30400
N 7.21668 2.57560 0.43160
C 6.53249 3.28336 1.35477
C 6.25210 4.58778 0.73507
C 6.68273 4.53309 -0.68841
C 7.01646 3.12805 -0.80906
C 5.70635 5.75445 1.50608
C 6.76660 5.57066 -1.76666
O 6.94271 5.25195 -2.99557
C 6.54326 6.96410 -1.35440
N 7.69751 0.20523 -1.40070
C 7.41195 1.13684 -2.32725
C 7.59700 0.59219 -3.72350
C 8.30207 -0.83139 -3.53940
C 8.32258 -0.90603 -1.99687
C 6.32014 0.42475 -4.54689
C 9.63163 -1.06295 -4.30837
C 10.71472 -0.17007 -3.74706
N 8.57546 -1.30434 0.94190
C 8.82076 -2.29541 -0.03365
C 9.16035 -3.54007 0.68601
C 9.06585 -3.18998 2.04137
C 8.67396 -1.82900 2.15824
C 9.45229 -4.79618 0.08345
C 9.19815 -3.66515 3.39982
O 9.58891 -4.70900 3.92081
C 8.57818 -2.57692 4.37849
C 9.55438 -2.35128 5.50038
O 10.66840 -1.84576 5.27676
O 8.93350 -2.56601 6.67459
C 9.85801 -2.34388 7.81817
H 5.34434 3.42943 3.09981
H 6.99377 2.95668 -2.90580
H 9.03831 -2.90190 -1.94058
H 6.73964 -0.46581 5.79321
H 6.00153 2.20520 5.28534
H 4.69437 -0.41212 4.66800
H 4.29780 0.90237 3.54143
H 3.93599 1.12663 5.22620
H 8.37289 2.06952 5.52796
H 9.24624 0.51330 5.77422
H 7.21181 0.70683 7.75694
H 7.73544 2.33271 7.49769
H 5.33306 5.44674 2.49064
H 4.81403 6.10056 0.97330
H 6.41694 6.58051 1.57918
H 5.55891 7.05321 -0.90100
H 6.73215 7.56626 -2.24524
H 7.27206 7.22011 -0.57728
H 8.24707 1.23363 -4.30580
H 7.65769 -1.65298 -3.88523
H 6.34381 0.97590 -5.50592
H 5.48088 0.74588 -3.94436
H 6.05460 -0.60427 -4.78314
H 9.51465 -0.78606 -5.35899
H 9.97172 -2.09284 -4.28269
H 10.54105 0.78074 -4.25979
H 11.69962 -0.56987 -3.97981
H 10.56652 0.00186 -2.67462
H 10.30569 -5.20299 0.60949
H 9.65390 -4.68954 -0.98039
H 8.51472 -5.32579 0.27249
H 7.62425 -2.96494 4.73770
H 9.85351 -3.26091 8.41542
H 9.50516 -1.41918 8.31232
H 10.91381 -2.24105 7.59646

