%nproc=24
%mem=175gb
#p cam-b3lyp/Def2SVP td=(nstates=5)

TDDFT excited states in gaussian

0 1
Mg 15.76290 1.42166 1.18788
C 17.36912 -1.17267 -0.70118
C 17.46930 3.66827 -0.72929
C 14.71766 3.71266 3.11823
C 15.09862 -0.96548 3.63858
N 17.20316 1.15931 -0.47015
C 17.69064 0.12771 -1.14284
C 18.50742 0.51144 -2.40584
C 18.93535 1.99755 -1.97312
C 17.78243 2.31723 -1.02377
C 20.23219 2.04419 -1.18233
C 17.62847 0.52229 -3.70559
C 18.41771 0.58485 -5.01514
H 17.90179 -0.13862 -6.17398
N 15.65300 3.38372 0.91069
C 16.40616 4.13116 0.07681
C 15.95003 5.51813 0.25692
C 14.97975 5.55009 1.38486
C 15.09749 4.19051 1.87246
C 16.37289 6.63791 -0.64901
C 14.10189 6.62973 1.94158
O 13.51540 6.50351 3.07425
C 14.02368 7.87620 1.16589
N 15.20348 1.43206 3.19020
C 14.73620 2.55075 3.77165
C 14.14103 2.25320 5.12724
C 14.08747 0.65830 5.23223
C 14.77331 0.29364 3.89730
C 14.90304 2.81661 6.32653
C 12.70822 0.02005 5.55314
C 11.76061 0.22894 4.39392
N 15.98280 -0.71965 1.37355
C 15.66553 -1.51555 2.49603
C 16.09684 -2.89448 2.18791
C 16.66049 -2.79994 0.90656
C 16.60399 -1.45312 0.45670
C 15.98969 -4.01415 3.06026
C 17.30002 -3.53128 -0.16340
O 17.53654 -4.71835 -0.38400
C 17.90171 -2.48728 -1.19995
C 17.50458 -2.92466 -2.58324
O 16.30973 -2.92268 -2.92811
O 18.61108 -3.06409 -3.33596
C 18.26799 -3.48612 -4.72015
H 18.12395 4.44906 -1.11748
H 14.24840 4.44374 3.78065
H 14.83812 -1.78568 4.31096
H 19.38915 -0.09413 -2.57792
H 18.92772 2.67422 -2.82366
H 20.59174 1.05531 -0.93943
H 20.00667 2.59703 -0.27980
H 20.97987 2.63526 -1.71892
H 17.08940 1.47653 -3.76534
H 16.96463 -0.32010 -3.72365
H 19.48154 0.36341 -4.86624
H 18.40672 1.61548 -5.37804
H 17.21810 6.34446 -1.28375
H 16.77562 7.43134 -0.01014
H 15.54417 7.04196 -1.23435
H 15.02019 8.29804 1.05882
H 13.27991 8.49155 1.67582
H 13.67250 7.63812 0.15564
H 13.13375 2.64430 5.20164
H 14.73915 0.28062 6.03379
H 14.28418 3.47183 6.96822
H 15.76911 3.35151 5.95999
H 15.35181 2.07075 6.98037
H 12.25496 0.51228 6.41710
H 12.76470 -1.03954 5.77912
H 11.37552 1.23801 4.56872
H 10.96044 -0.50815 4.41563
H 12.30188 0.24320 3.44078
H 15.63610 -4.84280 2.46125
H 15.31805 -3.80804 3.89104
H 17.02907 -4.10766 3.38615
H 18.98430 -2.48102 -1.06757
H 18.82887 -4.40378 -4.92266
H 18.48481 -2.61132 -5.36160
H 17.25198 -3.81367 -4.90695

