%nproc=24
%mem=175gb
#p cam-b3lyp/Def2SVP td=(nstates=5)

TDDFT excited states in gaussian

0 1
Mg 31.53013 2.83159 2.40270
C 29.55062 4.80364 4.65473
C 33.66277 2.27123 5.00510
C 33.52408 1.46806 0.34542
C 29.90964 4.45386 -0.22178
N 31.50226 3.50397 4.50969
C 30.66780 4.19912 5.26784
C 31.00876 4.18239 6.78212
C 32.57879 3.86358 6.67158
C 32.58639 3.13524 5.32915
C 33.43847 5.11014 6.54353
C 30.24554 3.04950 7.55417
C 30.29035 3.16791 9.07920
H 29.11603 2.75738 9.84400
N 33.05231 1.59720 2.71546
C 33.79162 1.48525 3.83893
C 34.80006 0.45231 3.55567
C 34.70011 0.08090 2.11804
C 33.74814 1.07085 1.65560
C 35.68039 -0.13853 4.61838
C 35.36259 -0.98045 1.29290
O 35.30737 -0.97022 0.01240
C 36.15595 -1.97931 2.02389
N 31.84861 3.09126 0.36469
C 32.73982 2.33317 -0.29787
C 32.59954 2.50614 -1.79145
C 31.26241 3.35791 -2.00160
C 30.89293 3.61743 -0.52460
C 33.76380 3.20587 -2.49235
C 30.18177 2.75175 -2.93833
C 29.59343 1.50853 -2.31092
N 29.88178 4.21504 2.21025
C 29.38391 4.78832 1.01964
C 28.33456 5.75342 1.40677
C 28.31051 5.69101 2.80820
C 29.29059 4.76811 3.26337
C 27.59002 6.57525 0.51436
C 27.68618 6.20387 4.00649
O 26.73348 6.94657 4.23996
C 28.54799 5.74584 5.26103
C 27.60552 5.19506 6.29587
O 26.95995 4.15565 6.07340
O 27.78395 5.85921 7.45234
C 26.87898 5.34141 8.51288
H 34.51104 2.22042 5.68829
H 34.11109 0.94472 -0.41287
H 29.28997 4.92754 -0.98619
H 30.85594 5.12570 7.29260
H 32.90390 3.19898 7.46781
H 32.84041 6.00194 6.42880
H 34.05558 4.95328 5.66854
H 34.12784 5.18119 7.38973
H 30.78375 2.10188 7.42340
H 29.22616 2.98525 7.22651
H 30.63546 4.15639 9.40592
H 31.04989 2.47997 9.45850
H 35.64243 0.44843 5.54436
H 36.71428 -0.03315 4.27219
H 35.47350 -1.19588 4.79689
H 36.93899 -1.47692 2.58684
H 36.47612 -2.70448 1.27323
H 35.50797 -2.47225 2.75720
H 32.48645 1.54757 -2.28284
H 31.47129 4.34008 -2.45053
H 34.21229 2.60107 -3.30300
H 34.50850 3.45715 -1.74884
H 33.52768 4.17846 -2.92074
H 30.63220 2.43898 -3.88355
H 29.38001 3.44266 -3.17671
H 30.31502 0.73129 -2.57978
H 28.61122 1.29674 -2.72860
H 29.58447 1.58600 -1.21750
H 26.56038 6.54041 0.84470
H 27.68983 6.23671 -0.51482
H 28.08168 7.53769 0.67941
H 29.08869 6.62073 5.62407
H 26.30733 6.19508 8.88992
H 27.53328 4.81557 9.23340
H 26.08312 4.67135 8.20945

