%nproc=24
%mem=175gb
#p cam-b3lyp/Def2SVP td=(nstates=5)

TDDFT excited states in gaussian

0 1
Mg 13.14078 1.18553 0.98804
C 15.68978 -1.21103 0.18920
C 15.44025 3.62202 0.34729
C 11.06409 3.30329 2.11494
C 11.44421 -1.37500 2.63457
N 15.25850 1.09224 0.35654
C 16.10280 0.12744 0.02385
C 17.43778 0.62517 -0.59232
C 17.45995 2.10046 0.04162
C 15.95869 2.30752 0.23143
C 18.12648 2.15924 1.40604
C 17.39096 0.67423 -2.15993
C 18.75076 0.85328 -2.83863
H 18.98739 0.17854 -4.11190
N 13.05486 3.15357 0.74719
C 14.08081 3.98479 0.46830
C 13.50043 5.33540 0.41189
C 12.07835 5.25323 0.84274
C 12.01504 3.87342 1.28115
C 14.25982 6.52684 -0.09527
C 10.96372 6.25478 0.86928
O 9.87378 6.03250 1.50604
C 11.22236 7.54121 0.20620
N 11.59924 1.04770 2.37621
C 10.81441 2.10584 2.64511
C 9.61042 1.69874 3.46063
C 9.62418 0.09965 3.47822
C 10.94124 -0.15054 2.71131
C 9.57101 2.22290 4.89593
C 8.33703 -0.62063 2.99127
C 8.14305 -0.38588 1.51051
N 13.38116 -0.95053 1.20607
C 12.57169 -1.82732 1.96109
C 13.19897 -3.16328 1.89645
C 14.35138 -2.96459 1.12124
C 14.44702 -1.59694 0.74720
C 12.72342 -4.33783 2.54484
C 15.51432 -3.59869 0.54317
O 15.91695 -4.75777 0.45279
C 16.49957 -2.46650 0.01990
C 16.93553 -2.83676 -1.37128
O 16.11320 -2.86950 -2.30364
O 18.27966 -2.87826 -1.41543
C 18.76051 -3.23065 -2.77794
H 16.14274 4.45471 0.39218
H 10.26230 3.96993 2.44080
H 10.92474 -2.24593 3.03992
H 18.31602 0.07300 -0.27994
H 17.85909 2.82664 -0.66173
H 18.37085 1.17525 1.77777
H 17.41456 2.64490 2.06053
H 19.00028 2.81617 1.37073
H 16.90004 1.60415 -2.47456
H 16.90219 -0.19554 -2.55392
H 19.58324 0.67304 -2.14766
H 18.86107 1.90248 -3.12326
H 15.33196 6.31239 -0.18435
H 14.20058 7.29776 0.68064
H 13.84535 6.92674 -1.02315
H 12.08850 8.01483 0.66221
H 10.27914 8.08896 0.25303
H 11.48338 7.34906 -0.84049
H 8.69407 2.03715 2.99279
H 9.77214 -0.29539 4.49404
H 8.65974 2.80819 5.12198
H 10.45774 2.81898 5.06609
H 9.65350 1.46032 5.66849
H 7.45827 -0.20368 3.48935
H 8.34026 -1.68824 3.18413
H 7.65258 0.59159 1.47778
H 7.51061 -1.15945 1.07964
H 9.10708 -0.28829 0.99790
H 12.80530 -5.14401 1.82799
H 11.69907 -4.21432 2.89011
H 13.43154 -4.40245 3.37530
H 17.34026 -2.41782 0.71303
H 19.40725 -4.10709 -2.67176
H 19.22273 -2.30920 -3.17922
H 18.02813 -3.59324 -3.48970

