%nproc=24
%mem=175gb
#p cam-b3lyp/Def2SVP td=(nstates=5)

TDDFT excited states in gaussian

0 1
Mg 31.53052 2.84739 2.40120
C 33.62408 2.23062 5.25000
C 28.87538 2.85887 4.54239
C 29.61784 2.94070 -0.12869
C 34.13357 1.66709 0.40702
N 31.39472 2.57006 4.59138
C 32.26314 2.40377 5.57756
C 31.64868 2.50443 6.99948
C 30.13169 2.12560 6.63326
C 30.11278 2.57593 5.17397
C 29.85749 0.63149 6.67563
C 31.75153 3.95291 7.59391
C 31.45386 4.05613 9.09140
H 32.20522 5.02448 9.88527
N 29.62293 3.37410 2.25216
C 28.69005 3.33725 3.22666
C 27.44132 3.80610 2.60616
C 27.67475 3.96601 1.14512
C 29.00397 3.40089 1.02713
C 26.21021 4.13208 3.40085
C 26.83491 4.52227 0.03541
O 27.14263 4.34437 -1.19605
C 25.59218 5.20109 0.43079
N 31.74650 2.17771 0.44487
C 30.78386 2.39138 -0.46923
C 31.27279 2.07056 -1.86150
C 32.84681 1.82645 -1.71847
C 32.98652 1.96689 -0.18675
C 30.62834 0.85614 -2.52951
C 33.77635 2.67732 -2.62657
C 33.70788 4.13102 -2.21735
N 33.58510 2.25690 2.71438
C 34.48967 1.76954 1.74571
C 35.72879 1.39406 2.45706
C 35.44870 1.66967 3.80393
C 34.12116 2.16186 3.92602
C 36.89182 0.82996 1.86101
C 35.97051 1.64616 5.15147
O 37.06789 1.40754 5.65403
C 34.76882 1.88918 6.16303
C 35.20377 2.92812 7.15999
O 35.43340 4.09526 6.79712
O 35.06713 2.43078 8.40271
C 35.47574 3.42844 9.42718
H 27.95484 2.65623 5.09049
H 29.03843 3.05485 -1.04779
H 35.02548 1.38328 -0.15568
H 32.04581 1.79656 7.71711
H 29.42639 2.70738 7.22100
H 30.76080 0.06033 6.83034
H 29.41409 0.38655 5.71936
H 29.09459 0.40941 7.42730
H 30.92959 4.56221 7.19653
H 32.71204 4.38278 7.38594
H 31.45528 3.07447 9.58057
H 30.43022 4.41701 9.21766
H 26.28511 3.75902 4.42974
H 25.38598 3.55848 2.96327
H 25.95752 5.19407 3.36941
H 24.96574 4.51048 0.99033
H 25.17498 5.60794 -0.49241
H 25.84323 6.02130 1.11259
H 31.10604 2.90486 -2.53175
H 33.12262 0.79072 -1.96552
H 30.15322 1.09287 -3.50023
H 29.90474 0.43394 -1.84491
H 31.29806 0.01595 -2.70489
H 33.43775 2.63080 -3.66452
H 34.81128 2.35229 -2.61056
H 32.81291 4.49086 -2.73372
H 34.59631 4.66461 -2.54903
H 33.52870 4.22867 -1.14031
H 37.74232 1.33607 2.29804
H 36.87650 0.93888 0.77857
H 36.78309 -0.21304 2.17019
H 34.54310 0.93418 6.63907
H 36.24312 2.95417 10.04677
H 34.54135 3.73823 9.93185
H 35.99822 4.31378 9.08420

