%nproc=24
%mem=175gb
#p cam-b3lyp/Def2SVP td=(nstates=5)

TDDFT excited states in gaussian

0 1
Mg 10.50994 0.94868 0.78816
C 12.61269 -1.55900 -0.68462
C 12.57074 3.28224 -0.60548
C 8.94920 3.16624 2.43556
C 9.32973 -1.51197 2.95566
N 12.32431 0.76194 -0.46303
C 12.99453 -0.24085 -1.01034
C 14.08762 0.19314 -2.02345
C 14.34958 1.67877 -1.47285
C 12.98781 1.94683 -0.83535
C 15.40720 1.73900 -0.38328
C 13.55933 0.21292 -3.50079
C 14.64701 0.32633 -4.57124
H 14.45732 -0.38204 -5.83405
N 10.41329 2.91341 0.52538
C 11.32717 3.69908 -0.08193
C 10.79899 5.06953 0.00219
C 9.57833 5.05037 0.85327
C 9.61213 3.68294 1.33189
C 11.39977 6.22077 -0.75089
C 8.55752 6.09417 1.19185
O 7.71203 5.92641 2.14045
C 8.63700 7.35639 0.44221
N 9.47042 0.89744 2.58791
C 8.83979 1.98995 3.05337
C 7.93565 1.64543 4.21278
C 7.90578 0.04765 4.27429
C 8.91252 -0.26788 3.14633
C 8.35837 2.19903 5.57338
C 6.50993 -0.63235 4.23075
C 5.87429 -0.41971 2.87571
N 10.74125 -1.19028 0.98672
C 10.17912 -2.02034 1.98124
C 10.71484 -3.38034 1.76713
C 11.57612 -3.24127 0.66833
C 11.59263 -1.88596 0.24130
C 10.42805 -4.52277 2.56633
C 12.48324 -3.93073 -0.22075
O 12.80284 -5.10592 -0.39541
C 13.29190 -2.84764 -1.05704
C 13.26437 -3.26178 -2.50281
O 12.19322 -3.28148 -3.13435
O 14.52691 -3.35554 -2.95842
C 14.55146 -3.75298 -4.39134
H 13.27748 4.08817 -0.80517
H 8.30822 3.86939 2.97241
H 8.93515 -2.35419 3.52806
H 15.00229 -0.38593 -1.98064
H 14.53317 2.37508 -2.28697
H 15.72474 0.75393 -0.07515
H 14.94790 2.26440 0.44379
H 16.24661 2.36118 -0.70671
H 13.02351 1.15453 -3.67687
H 12.94652 -0.64514 -3.69780
H 15.64663 0.12809 -4.16578
H 14.69548 1.36471 -4.90804
H 12.38466 5.96373 -1.15994
H 11.60699 7.00860 -0.01860
H 10.73072 6.61778 -1.51733
H 9.61567 7.80545 0.59384
H 7.77164 7.94064 0.76107
H 8.55524 7.13370 -0.62753
H 6.93016 2.00933 4.04050
H 8.34890 -0.33258 5.20644
H 7.57999 2.82311 6.05162
H 9.27183 2.76399 5.44317
H 8.65284 1.44929 6.30575
H 5.84156 -0.17231 4.96273
H 6.54039 -1.69527 4.44582
H 5.42760 0.57497 2.96603
H 5.11643 -1.17689 2.68503
H 6.63477 -0.36924 2.08782
H 10.25956 -5.34552 1.88428
H 9.56512 -4.35334 3.20697
H 11.35616 -4.59798 3.13923
H 14.30693 -2.81745 -0.65909
H 15.17247 -4.65124 -4.46317
H 14.89442 -2.85801 -4.94376
H 13.62410 -4.10129 -4.83081

