%nproc=24
%mem=175gb
#p cam-b3lyp/Def2SVP td=(nstates=5)

TDDFT excited states in gaussian

0 1
Mg 15.77273 1.42210 1.20563
C 15.68338 -1.56621 3.19085
C 14.53427 3.08124 3.91636
C 15.41453 3.97456 -0.64478
C 15.90182 -0.62142 -1.61449
N 15.22130 0.73674 3.23503
C 15.28835 -0.40968 3.89500
C 14.98801 -0.29607 5.41370
C 14.10453 1.04464 5.38446
C 14.67416 1.68521 4.12040
C 12.62377 0.78488 5.16264
C 16.29045 -0.10719 6.26809
C 16.10443 -0.29832 7.77494
H 17.19026 -0.90677 8.53866
N 15.54786 3.33468 1.68525
C 15.05031 3.83169 2.83708
C 15.07556 5.29500 2.68795
C 15.47467 5.61732 1.29098
C 15.47431 4.29221 0.70432
C 14.81790 6.23393 3.83051
C 15.79037 6.90638 0.59465
O 15.88186 6.97730 -0.68184
C 15.89694 8.10146 1.44430
N 15.45899 1.65003 -0.83691
C 15.39155 2.87199 -1.39386
C 15.43872 2.78794 -2.90088
C 15.79692 1.26562 -3.23526
C 15.80751 0.68767 -1.80304
C 14.15352 3.17995 -3.62956
C 17.03314 1.01635 -4.14207
C 18.29599 1.41930 -3.41527
N 15.97655 -0.69527 0.82714
C 15.98138 -1.34067 -0.42885
C 16.02804 -2.79457 -0.17107
C 16.02384 -2.89568 1.22830
C 15.95743 -1.59727 1.80208
C 16.01896 -3.81592 -1.16247
C 16.04977 -3.80599 2.35052
O 16.19157 -5.02123 2.48019
C 15.70284 -2.99110 3.67036
C 16.71046 -3.36217 4.72369
O 17.90996 -3.06529 4.58340
O 16.06278 -3.80950 5.81492
C 17.01940 -4.17970 6.89178
H 13.93692 3.65225 4.62770
H 15.40197 4.82575 -1.32948
H 16.04328 -1.32151 -2.44065
H 14.40872 -1.11419 5.82465
H 14.30477 1.66861 6.25160
H 12.42543 -0.25357 4.94262
H 12.33738 1.41005 4.32707
H 12.04572 1.14328 6.01923
H 16.58192 0.95081 6.24746
H 17.07354 -0.75030 5.91621
H 15.14892 -0.78060 8.01441
H 16.03252 0.68628 8.24336
H 14.38867 5.70952 4.69316
H 14.02693 6.91990 3.50854
H 15.70041 6.81589 4.10469
H 14.96210 8.24823 1.98002
H 16.21524 8.90596 0.77846
H 16.66911 7.92475 2.20137
H 16.21636 3.42770 -3.29973
H 14.97849 0.76268 -3.77104
H 14.29893 3.99564 -4.36276
H 13.41418 3.45990 -2.89095
H 13.65634 2.36833 -4.15803
H 16.97791 1.64021 -5.03756
H 17.12634 -0.01298 -4.47192
H 18.34397 2.49925 -3.58409
H 19.16075 0.91444 -3.84113
H 18.19697 1.25854 -2.33546
H 16.75802 -4.54708 -0.86301
H 16.23431 -3.41331 -2.15005
H 14.98540 -4.16184 -1.07665
H 14.68693 -3.25895 3.96322
H 16.80631 -5.21766 7.16549
H 16.89214 -3.41451 7.68047
H 18.06927 -4.24123 6.63017

