%nproc=24
%mem=175gb
#p cam-b3lyp/Def2SVP td=(nstates=5)

TDDFT excited states in gaussian

0 1
Mg 0.00000 0.00000 0.00000
C -0.21700 -2.21800 2.80100
C -1.25500 2.44200 2.02600
C -0.24500 1.85000 -2.56400
C 0.14600 -2.82400 -2.03700
N -0.61700 -0.00900 2.12600
C -0.59400 -0.90800 3.10500
C -0.93600 -0.30900 4.50200
C -1.77300 0.96400 4.03200
C -1.15500 1.16800 2.66000
C -3.26300 0.68500 3.86300
C 0.34500 0.11000 5.29900
C 0.12400 0.39700 6.78700
H 1.16800 0.03300 7.73300
N -0.18500 1.96100 -0.15200
C -0.70300 2.80000 0.77700
C -0.62000 4.15600 0.19300
C -0.18700 4.01500 -1.22500
C -0.21400 2.58300 -1.38000
C -0.88700 5.40600 0.97400
C 0.18100 5.01300 -2.27700
O 0.30300 4.69000 -3.50800
C 0.31000 6.41400 -1.83700
N -0.26500 -0.41300 -2.02900
C -0.27900 0.56900 -2.93700
C -0.19600 0.02400 -4.33200
C 0.12400 -1.53300 -4.18000
C 0.08600 -1.63200 -2.63500
C -1.45100 0.20500 -5.19700
C 1.37300 -2.07000 -4.92300
C 2.62600 -1.49000 -4.30600
N 0.15000 -2.14400 0.30300
C 0.17300 -3.13600 -0.68800
C 0.17300 -4.43800 0.00400
C 0.13300 -4.11100 1.35800
C 0.08300 -2.69500 1.50200
C 0.14900 -5.71500 -0.62300
C 0.09600 -4.62900 2.71600
O 0.20800 -5.74700 3.22100
C -0.25500 -3.42800 3.70100
C 0.71700 -3.48200 4.84800
O 1.93100 -3.25500 4.66900
O 0.03800 -3.55600 6.00300
C 0.94300 -3.58300 7.18300
H -1.85900 3.22000 2.49700
H -0.21800 2.45300 -3.47400
H 0.27600 -3.74700 -2.60500
H -1.55400 -0.94900 5.13200
H -1.58500 1.83100 4.66500
H -3.48400 -0.37700 3.96900
H -3.51100 1.02700 2.85800
H -3.85200 1.30100 4.54300
H 0.66900 1.09600 4.96600
H 1.13000 -0.63900 5.18900
H -0.84400 0.02600 7.12500
H 0.06200 1.47700 6.92100
H -1.34400 5.18600 1.93800
H -1.65100 5.96300 0.43200
H 0.00700 6.02000 1.08400
H -0.63500 6.74400 -1.40500
H 0.66500 6.97000 -2.70400
H 1.04800 6.46600 -1.03600
H 0.60800 0.50100 -4.89100
H -0.69200 -2.15600 -4.54700
H -1.26700 0.74000 -6.12900
H -2.20400 0.71400 -4.59600
H -1.96700 -0.72000 -5.45300
H 1.35600 -1.75900 -5.96700
H 1.45200 -3.15700 -4.90200
H 2.71400 -0.52200 -4.79800
H 3.48700 -2.12100 -4.52900
H 2.49500 -1.30300 -3.24000
H 0.86700 -6.33300 -0.08400
H 0.40400 -5.64200 -1.68000
H -0.89100 -5.99900 -0.46300
H -1.28300 -3.58100 4.02800
H 0.69800 -4.47800 7.75500
H 0.83300 -2.61900 7.68000
H 2.00000 -3.75400 6.97600
Mg 8.94194 0.79752 0.68121
C 9.13827 -1.15187 -2.32552
C 8.19386 -2.09367 2.32923
C 8.32017 2.54322 3.25674
C 8.57229 3.61581 -1.33531
N 8.72395 -1.28982 -0.01720
C 8.88236 -1.92067 -1.17101
C 8.83923 -3.46897 -1.06873
C 7.98300 -3.59686 0.28382
C 8.34496 -2.26090 0.92948
C 6.48228 -3.62137 0.04601
C 10.26777 -4.09726 -0.90580
C 10.33092 -5.61258 -1.10963
H 11.51906 -6.18116 -1.74011
N 8.82784 0.27248 2.59167
C 8.53519 -0.94967 3.08361
C 8.55702 -0.80975 4.54789
C 8.72413 0.63149 4.87895
C 8.60710 1.22023 3.55994
C 8.50592 -1.98645 5.47858
C 8.93922 1.36048 6.17065
O 8.81922 2.63391 6.25322
C 9.20260 0.53099 7.35559
N 8.29787 2.75805 0.93388
C 8.15724 3.28666 2.16217
C 7.95308 4.78127 2.09270
C 8.22847 5.18215 0.56921
C 8.46742 3.77599 -0.02324
C 6.57094 5.28396 2.50909
C 9.29374 6.28310 0.31269
C 10.66527 5.77242 0.69149
N 9.04901 1.22093 -1.43476
C 8.83636 2.46533 -2.06747
C 8.90356 2.23011 -3.52438
C 9.12954 0.85019 -3.63953
C 9.17819 0.26330 -2.34621
C 8.71543 3.21419 -4.53547
C 9.32739 -0.24514 -4.56138
O 9.47074 -0.34012 -5.77964
C 9.21577 -1.61048 -3.75530
C 10.37825 -2.47946 -4.15033
O 11.54223 -2.14473 -3.86802
O 9.91357 -3.65940 -4.60000
C 11.02966 -4.56004 -4.99372
H 7.73099 -2.89853 2.90093
H 8.20703 3.20976 4.11487
H 8.56470 4.45939 -2.02884
H 8.32393 -3.96384 -1.88319
H 8.33320 -4.42365 0.89630
H 6.23494 -3.42919 -0.98745
H 6.07081 -2.84964 0.68333
H 6.05933 -4.56462 0.40340
H 10.56740 -4.03683 0.14839
H 10.97223 -3.61557 -1.55567
H 9.42120 -6.00327 -1.58155
H 10.35207 -6.09405 -0.12893
H 8.21768 -2.90419 4.95125
H 7.68278 -1.80526 6.17821
H 9.43013 -2.11516 6.04597
H 8.37159 -0.15329 7.50935
H 9.41815 1.23410 8.16246
H 10.08673 -0.08632 7.16101
H 8.66335 5.29846 2.72607
H 7.32531 5.57885 0.08262
H 6.60502 6.02477 3.33013
H 5.96826 4.43094 2.79137
H 5.98121 5.72904 1.70951
H 9.10028 7.15221 0.94623
H 9.31584 6.63179 -0.71440
H 10.70059 5.93848 1.77235
H 11.44007 6.33952 0.17950
H 10.74397 4.69240 0.52117
H 9.48298 3.04695 -5.27937
H 8.77028 4.22065 -4.12582
H 7.70533 2.96104 -4.86848
H 8.25851 -2.06549 -4.01257
H 10.84950 -4.85721 -6.03146
H 11.04601 -5.36481 -4.23489
H 12.02072 -4.12767 -5.06655

