%nproc=24
%mem=175gb
#p cam-b3lyp/Def2SVP td=(nstates=5)

TDDFT excited states in gaussian

0 1
Mg 0.00000 0.00000 0.00000
C -0.21700 -2.21800 2.80100
C -1.25500 2.44200 2.02600
C -0.24500 1.85000 -2.56400
C 0.14600 -2.82400 -2.03700
N -0.61700 -0.00900 2.12600
C -0.59400 -0.90800 3.10500
C -0.93600 -0.30900 4.50200
C -1.77300 0.96400 4.03200
C -1.15500 1.16800 2.66000
C -3.26300 0.68500 3.86300
C 0.34500 0.11000 5.29900
C 0.12400 0.39700 6.78700
H 1.16800 0.03300 7.73300
N -0.18500 1.96100 -0.15200
C -0.70300 2.80000 0.77700
C -0.62000 4.15600 0.19300
C -0.18700 4.01500 -1.22500
C -0.21400 2.58300 -1.38000
C -0.88700 5.40600 0.97400
C 0.18100 5.01300 -2.27700
O 0.30300 4.69000 -3.50800
C 0.31000 6.41400 -1.83700
N -0.26500 -0.41300 -2.02900
C -0.27900 0.56900 -2.93700
C -0.19600 0.02400 -4.33200
C 0.12400 -1.53300 -4.18000
C 0.08600 -1.63200 -2.63500
C -1.45100 0.20500 -5.19700
C 1.37300 -2.07000 -4.92300
C 2.62600 -1.49000 -4.30600
N 0.15000 -2.14400 0.30300
C 0.17300 -3.13600 -0.68800
C 0.17300 -4.43800 0.00400
C 0.13300 -4.11100 1.35800
C 0.08300 -2.69500 1.50200
C 0.14900 -5.71500 -0.62300
C 0.09600 -4.62900 2.71600
O 0.20800 -5.74700 3.22100
C -0.25500 -3.42800 3.70100
C 0.71700 -3.48200 4.84800
O 1.93100 -3.25500 4.66900
O 0.03800 -3.55600 6.00300
C 0.94300 -3.58300 7.18300
H -1.85900 3.22000 2.49700
H -0.21800 2.45300 -3.47400
H 0.27600 -3.74700 -2.60500
H -1.55400 -0.94900 5.13200
H -1.58500 1.83100 4.66500
H -3.48400 -0.37700 3.96900
H -3.51100 1.02700 2.85800
H -3.85200 1.30100 4.54300
H 0.66900 1.09600 4.96600
H 1.13000 -0.63900 5.18900
H -0.84400 0.02600 7.12500
H 0.06200 1.47700 6.92100
H -1.34400 5.18600 1.93800
H -1.65100 5.96300 0.43200
H 0.00700 6.02000 1.08400
H -0.63500 6.74400 -1.40500
H 0.66500 6.97000 -2.70400
H 1.04800 6.46600 -1.03600
H 0.60800 0.50100 -4.89100
H -0.69200 -2.15600 -4.54700
H -1.26700 0.74000 -6.12900
H -2.20400 0.71400 -4.59600
H -1.96700 -0.72000 -5.45300
H 1.35600 -1.75900 -5.96700
H 1.45200 -3.15700 -4.90200
H 2.71400 -0.52200 -4.79800
H 3.48700 -2.12100 -4.52900
H 2.49500 -1.30300 -3.24000
H 0.86700 -6.33300 -0.08400
H 0.40400 -5.64200 -1.68000
H -0.89100 -5.99900 -0.46300
H -1.28300 -3.58100 4.02800
H 0.69800 -4.47800 7.75500
H 0.83300 -2.61900 7.68000
H 2.00000 -3.75400 6.97600
Mg 31.53257 2.84348 2.40484
C 29.77878 0.40153 4.36446
C 29.06564 5.05264 3.22244
C 32.80576 4.87988 0.33132
C 33.18884 0.20155 0.84835
N 29.71055 2.63574 3.64150
C 29.17959 1.67821 4.38686
C 27.98353 2.13496 5.26457
C 27.51947 3.40415 4.39700
C 28.85212 3.74804 3.73483
C 26.52036 3.05490 3.30652
C 28.42889 2.55798 6.70843
C 27.28557 2.71929 7.71269
H 27.52155 2.33973 9.10291
N 31.30720 4.80747 2.23010
C 30.25278 5.54493 2.63705
C 30.56323 6.93277 2.26064
C 31.81218 6.93113 1.45142
C 32.01660 5.50613 1.28504
C 29.75322 8.10478 2.73361
C 32.67228 8.03037 0.90543
O 33.57923 7.80330 0.02867
C 32.35927 9.39379 1.35776
N 32.65453 2.57740 0.67488
C 33.12834 3.63243 -0.01092
C 34.13120 3.19946 -1.05361
C 34.41400 1.65275 -0.76157
C 33.41487 1.42667 0.39429
C 33.69441 3.37087 -2.50833
C 35.89528 1.23578 -0.55036
C 36.42234 1.83577 0.73323
N 31.64925 0.70352 2.67872
C 32.38270 -0.21747 1.89904
C 32.05677 -1.56854 2.39985
C 31.13136 -1.33939 3.42921
C 30.88175 0.05462 3.54724
C 32.55795 -2.79335 1.87565
C 30.30082 -1.96055 4.43573
O 30.16108 -3.10681 4.86035
C 29.29234 -0.87029 5.00202
C 29.31326 -0.95377 6.50372
O 30.34191 -0.66173 7.13871
O 28.06014 -1.15271 6.95148
C 28.02772 -1.23139 8.43626
H 28.23241 5.75589 3.23019
H 33.35429 5.54638 -0.33829
H 33.73815 -0.66783 0.48078
H 27.17410 1.41856 5.33774
H 27.18925 4.21952 5.03534
H 26.37660 1.98826 3.21841
H 26.93180 3.45815 2.39047
H 25.57897 3.58612 3.47358
H 28.80127 3.59011 6.68029
H 29.15812 1.87444 7.09781
H 26.35050 2.27771 7.34717
H 27.05852 3.78353 7.81203
H 28.80185 7.78407 3.17569
H 29.46141 8.67202 1.84313
H 30.31330 8.76124 3.40297
H 31.33099 9.63343 1.09764
H 33.13704 10.02938 0.93000
H 32.42219 9.42269 2.45130
H 35.05756 3.75139 -0.95190
H 34.08230 1.01380 -1.59317
H 34.38798 3.99632 -3.10150
H 32.69844 3.79335 -2.51816
H 33.55741 2.44340 -3.06172
H 36.51851 1.63075 -1.35643
H 36.04233 0.16116 -0.52664
H 36.71159 2.84716 0.43235
H 37.27916 1.27173 1.09622
H 35.62553 1.92928 1.48022
H 32.81949 -3.41135 2.72428
H 33.41412 -2.62673 1.22530
H 31.68239 -3.14077 1.32071
H 28.30592 -1.09285 4.59333
H 27.55232 -2.18243 8.69550
H 27.52204 -0.30708 8.77343
H 28.97544 -1.32056 8.95425

