%nproc=24
%mem=175gb
#p cam-b3lyp/Def2SVP td=(nstates=5)

TDDFT excited states in gaussian

0 1
Mg 0.00000 0.00000 0.00000
C -0.21700 -2.21800 2.80100
C -1.25500 2.44200 2.02600
C -0.24500 1.85000 -2.56400
C 0.14600 -2.82400 -2.03700
N -0.61700 -0.00900 2.12600
C -0.59400 -0.90800 3.10500
C -0.93600 -0.30900 4.50200
C -1.77300 0.96400 4.03200
C -1.15500 1.16800 2.66000
C -3.26300 0.68500 3.86300
C 0.34500 0.11000 5.29900
C 0.12400 0.39700 6.78700
H 1.16800 0.03300 7.73300
N -0.18500 1.96100 -0.15200
C -0.70300 2.80000 0.77700
C -0.62000 4.15600 0.19300
C -0.18700 4.01500 -1.22500
C -0.21400 2.58300 -1.38000
C -0.88700 5.40600 0.97400
C 0.18100 5.01300 -2.27700
O 0.30300 4.69000 -3.50800
C 0.31000 6.41400 -1.83700
N -0.26500 -0.41300 -2.02900
C -0.27900 0.56900 -2.93700
C -0.19600 0.02400 -4.33200
C 0.12400 -1.53300 -4.18000
C 0.08600 -1.63200 -2.63500
C -1.45100 0.20500 -5.19700
C 1.37300 -2.07000 -4.92300
C 2.62600 -1.49000 -4.30600
N 0.15000 -2.14400 0.30300
C 0.17300 -3.13600 -0.68800
C 0.17300 -4.43800 0.00400
C 0.13300 -4.11100 1.35800
C 0.08300 -2.69500 1.50200
C 0.14900 -5.71500 -0.62300
C 0.09600 -4.62900 2.71600
O 0.20800 -5.74700 3.22100
C -0.25500 -3.42800 3.70100
C 0.71700 -3.48200 4.84800
O 1.93100 -3.25500 4.66900
O 0.03800 -3.55600 6.00300
C 0.94300 -3.58300 7.18300
H -1.85900 3.22000 2.49700
H -0.21800 2.45300 -3.47400
H 0.27600 -3.74700 -2.60500
H -1.55400 -0.94900 5.13200
H -1.58500 1.83100 4.66500
H -3.48400 -0.37700 3.96900
H -3.51100 1.02700 2.85800
H -3.85200 1.30100 4.54300
H 0.66900 1.09600 4.96600
H 1.13000 -0.63900 5.18900
H -0.84400 0.02600 7.12500
H 0.06200 1.47700 6.92100
H -1.34400 5.18600 1.93800
H -1.65100 5.96300 0.43200
H 0.00700 6.02000 1.08400
H -0.63500 6.74400 -1.40500
H 0.66500 6.97000 -2.70400
H 1.04800 6.46600 -1.03600
H 0.60800 0.50100 -4.89100
H -0.69200 -2.15600 -4.54700
H -1.26700 0.74000 -6.12900
H -2.20400 0.71400 -4.59600
H -1.96700 -0.72000 -5.45300
H 1.35600 -1.75900 -5.96700
H 1.45200 -3.15700 -4.90200
H 2.71400 -0.52200 -4.79800
H 3.48700 -2.12100 -4.52900
H 2.49500 -1.30300 -3.24000
H 0.86700 -6.33300 -0.08400
H 0.40400 -5.64200 -1.68000
H -0.89100 -5.99900 -0.46300
H -1.28300 -3.58100 4.02800
H 0.69800 -4.47800 7.75500
H 0.83300 -2.61900 7.68000
H 2.00000 -3.75400 6.97600
Mg 13.13218 1.17783 1.00488
C 12.37237 3.83559 3.29356
C 14.45881 -0.51936 3.64953
C 14.21693 -0.98075 -1.05212
C 12.80645 3.49533 -1.57752
N 13.33065 1.69573 3.14606
C 12.95001 2.70714 3.91191
C 13.12930 2.46399 5.43450
C 14.28854 1.35478 5.36602
C 13.99309 0.77750 3.98322
C 15.68788 1.94710 5.34730
C 11.82992 1.89613 6.10619
C 11.83132 1.92571 7.63618
H 10.57252 2.18780 8.32843
N 13.73369 -0.69004 1.30123
C 14.22314 -1.21572 2.44376
C 14.53862 -2.61967 2.13787
C 14.34971 -2.83546 0.67758
C 14.10757 -1.47555 0.23930
C 14.89467 -3.62289 3.19626
C 14.39397 -4.06101 -0.18398
O 14.43663 -3.98398 -1.46268
C 14.48019 -5.35131 0.51545
N 13.67258 1.28712 -0.99971
C 14.06110 0.18929 -1.67182
C 14.13308 0.45562 -3.15650
C 13.47608 1.89848 -3.36650
C 13.20712 2.27111 -1.89199
C 15.53394 0.44072 -3.76788
C 12.30276 1.99681 -4.37958
C 11.10113 1.24636 -3.85205
N 12.49626 3.23550 0.83264
C 12.46135 4.02223 -0.33951
C 12.06834 5.38785 0.06429
C 11.92309 5.30580 1.45736
C 12.22526 3.98749 1.89355
C 11.93910 6.50759 -0.80496
C 11.59318 6.03733 2.65933
O 11.17268 7.16822 2.90014
C 11.99215 5.15018 3.91638
C 10.83597 5.16129 4.87848
O 9.75071 4.63907 4.56848
O 11.26595 5.59011 6.07915
C 10.15733 5.60808 7.07034
H 15.10154 -1.03877 4.36087
H 14.48105 -1.71436 -1.81733
H 12.58779 4.25070 -2.33534
H 13.47178 3.32564 5.99489
H 14.15485 0.59588 6.13255
H 15.66863 3.02356 5.26365
H 16.18101 1.50968 4.48909
H 16.25128 1.61086 6.22243
H 11.78494 0.81222 5.93927
H 10.95827 2.39981 5.73583
H 12.62943 2.56336 8.03539
H 12.07835 0.92626 8.00236
H 15.11613 -3.13584 4.15394
H 15.84458 -4.07931 2.89759
H 14.14313 -4.40815 3.30217
H 15.37174 -5.36583 1.13785
H 14.41106 -6.11182 -0.26476
H 13.62274 -5.44062 1.19177
H 13.55719 -0.27655 -3.70911
H 14.20676 2.62749 -3.74661
H 15.64121 -0.28550 -4.59562
H 16.24707 0.22974 -2.98209
H 15.88329 1.40023 -4.14539
H 12.57667 1.51971 -5.32378
H 12.01254 3.01720 -4.60666
H 11.31080 0.21164 -4.13924
H 10.18776 1.60843 -4.31970
H 11.06356 1.28340 -2.75712
H 11.03153 7.02166 -0.51765
H 11.90937 6.19978 -1.84810
H 12.85730 7.04943 -0.56289
H 12.89188 5.58588 4.35254
H 10.10778 6.62334 7.47589
H 10.38011 4.79148 7.78257
H 9.14832 5.48035 6.69612

