%nproc=24
%mem=175gb
#p cam-b3lyp/Def2SVP td=(nstates=5)

TDDFT excited states in gaussian

0 1
Mg 8.94075 0.80607 0.68685
C 8.90148 -2.40879 2.28128
C 7.72007 2.09860 3.59785
C 8.53797 3.56703 -0.82388
C 9.05425 -0.86542 -2.36912
N 8.41963 -0.13451 2.61972
C 8.50467 -1.35404 3.12950
C 8.22146 -1.43526 4.65356
C 7.32588 -0.11065 4.80265
C 7.87472 0.68950 3.62316
C 5.84493 -0.35566 4.56581
C 9.53228 -1.34190 5.51091
C 9.36593 -1.72277 6.98367
H 10.46611 -2.41119 7.65311
N 8.70472 2.64080 1.40560
C 8.21657 2.98399 2.61606
C 8.22711 4.45463 2.65191
C 8.60667 4.95403 1.30237
C 8.61102 3.71321 0.55374
C 7.97480 5.23983 3.90619
C 8.90264 6.32354 0.77037
O 8.97827 6.55526 -0.48797
C 9.00877 7.40341 1.76240
N 8.60067 1.28565 -1.30732
C 8.51581 2.56715 -1.70540
C 8.54575 2.67364 -3.21144
C 8.91338 1.20917 -3.73846
C 8.94614 0.45595 -2.39050
C 7.24854 3.14091 -3.87121
C 10.14085 1.08853 -4.68261
C 11.40867 1.40990 -3.92448
N 9.15874 -1.24475 0.04288
C 9.15430 -1.72711 -1.28429
C 9.21688 -3.20131 -1.21194
C 9.23026 -3.47752 0.16357
C 9.15921 -2.26226 0.89678
C 9.20500 -4.09002 -2.32377
C 9.27760 -4.52133 1.16203
O 9.43167 -5.74171 1.13630
C 8.93924 -3.88237 2.57753
C 9.96259 -4.37250 3.56497
O 11.15766 -4.04805 3.45028
O 9.33194 -4.96004 4.59814
C 10.30456 -5.45280 5.60958
H 7.12623 2.56952 4.38172
H 8.50973 4.49733 -1.39591
H 9.19204 -1.45464 -3.27825
H 7.65437 -2.30445 4.96452
H 7.53093 0.40142 5.73919
H 5.65317 -1.36021 4.21905
H 5.54309 0.36659 3.81861
H 5.27399 -0.11370 5.46681
H 9.81411 -0.28675 5.62040
H 10.31676 -1.92762 5.07257
H 8.41764 -2.24110 7.17080
H 9.29091 -0.80564 7.57295
H 7.56053 4.60679 4.70057
H 7.17401 5.95267 3.68154
H 8.85534 5.79175 4.24191
H 8.07912 7.47208 2.32230
H 9.31199 8.28843 1.19966
H 9.79144 7.14089 2.48290
H 9.31289 3.36640 -3.53497
H 8.09309 0.76917 -4.32444
H 7.37799 4.04372 -4.49751
H 6.51561 3.31821 -3.09538
H 6.75229 2.39707 -4.49221
H 10.06944 1.81938 -5.49188
H 10.23921 0.10983 -5.14029
H 11.44508 2.50294 -3.95663
H 12.27271 0.97146 -4.41970
H 11.32395 1.11370 -2.87246
H 9.95401 -4.84540 -2.12659
H 9.40500 -3.56430 -3.25511
H 8.17564 -4.45458 -2.27108
H 7.92930 -4.19531 2.84524
H 10.10393 -6.51906 5.75282
H 10.17996 -4.79413 6.48957
H 11.35174 -5.47018 5.33107

