%nproc=24
%mem=175gb
#p cam-b3lyp/Def2SVP td=(nstates=5)

TDDFT excited states in gaussian

0 1
Mg 31.54054 2.84363 2.40036
C 31.97079 0.67614 5.22806
C 30.88892 5.35566 4.61389
C 30.71521 4.66560 -0.06271
C 31.09652 -0.01292 0.45391
N 31.46962 2.88672 4.61064
C 31.71100 2.01705 5.58005
C 31.75098 2.63515 7.00340
C 30.84802 3.93404 6.72696
C 31.10707 4.09787 5.23072
C 29.36220 3.68848 6.93038
C 33.20467 3.02918 7.44332
C 33.36150 3.35021 8.93130
H 34.60489 2.97261 9.59754
N 31.37714 4.81650 2.26009
C 31.13370 5.68619 3.26290
C 31.08693 7.01739 2.63849
C 31.15870 6.84572 1.16198
C 31.06343 5.40333 1.05937
C 31.06370 8.28948 3.43515
C 31.27868 7.81950 0.02904
O 31.08379 7.46489 -1.18714
C 31.53906 9.21993 0.39306
N 30.77710 2.40664 0.51660
C 30.55614 3.38129 -0.38294
C 30.27114 2.80723 -1.75028
C 30.58639 1.24368 -1.63404
C 30.92853 1.16565 -0.12996
C 28.84681 3.00171 -2.26974
C 31.59764 0.65192 -2.65377
C 32.97890 1.20825 -2.39300
N 31.71114 0.71155 2.70557
C 31.45511 -0.30825 1.76295
C 31.59576 -1.59855 2.46848
C 31.90371 -1.23653 3.78855
C 31.93173 0.17969 3.90263
C 31.39452 -2.88606 1.89581
C 32.20099 -1.73031 5.11388
O 32.39981 -2.84185 5.60244
C 32.13318 -0.51302 6.13368
C 33.35814 -0.56813 7.00487
O 34.48872 -0.39217 6.51759
O 32.97971 -0.60225 8.29560
C 34.16013 -0.64637 9.19920
H 30.44885 6.15613 5.20927
H 30.52924 5.24588 -0.96945
H 31.07016 -0.95054 -0.10542
H 31.29857 2.02544 7.77629
H 31.21857 4.79657 7.27477
H 29.14745 2.64609 7.11327
H 28.88185 4.01947 6.01892
H 28.97864 4.33480 7.72504
H 33.45649 4.00685 7.01262
H 33.90719 2.26908 7.16164
H 32.49557 3.01978 9.51776
H 33.36910 4.43608 9.05310
H 30.84973 8.09729 4.49377
H 30.20338 8.87024 3.08524
H 31.96940 8.88539 3.30371
H 30.74227 9.57901 1.04009
H 31.68104 9.74619 -0.55286
H 32.46387 9.26292 0.97915
H 30.92429 3.24289 -2.49641
H 29.68324 0.63377 -1.78292
H 28.80505 3.52495 -3.24367
H 28.28197 3.54328 -1.52260
H 28.26657 2.08719 -2.38004
H 31.32943 0.95084 -3.67007
H 31.64259 -0.43193 -2.63815
H 32.95999 2.17007 -2.91419
H 33.74105 0.55048 -2.80592
H 33.12532 1.41417 -1.32631
H 32.20044 -3.51431 2.25121
H 31.37556 -2.83924 0.80897
H 30.41496 -3.13420 2.31313
H 31.21455 -0.62068 6.71171
H 34.04015 -1.52625 9.83882
H 34.19035 0.33976 9.69957
H 35.12742 -0.84104 8.75098

