%nproc=24
%mem=175gb
#p cam-b3lyp/Def2SVP td=(nstates=5)

TDDFT excited states in gaussian

0 1
Mg 0.00000 0.00000 0.00000
C -0.21700 -2.21800 2.80100
C -1.25500 2.44200 2.02600
C -0.24500 1.85000 -2.56400
C 0.14600 -2.82400 -2.03700
N -0.61700 -0.00900 2.12600
C -0.59400 -0.90800 3.10500
C -0.93600 -0.30900 4.50200
C -1.77300 0.96400 4.03200
C -1.15500 1.16800 2.66000
C -3.26300 0.68500 3.86300
C 0.34500 0.11000 5.29900
C 0.12400 0.39700 6.78700
H 1.16800 0.03300 7.73300
N -0.18500 1.96100 -0.15200
C -0.70300 2.80000 0.77700
C -0.62000 4.15600 0.19300
C -0.18700 4.01500 -1.22500
C -0.21400 2.58300 -1.38000
C -0.88700 5.40600 0.97400
C 0.18100 5.01300 -2.27700
O 0.30300 4.69000 -3.50800
C 0.31000 6.41400 -1.83700
N -0.26500 -0.41300 -2.02900
C -0.27900 0.56900 -2.93700
C -0.19600 0.02400 -4.33200
C 0.12400 -1.53300 -4.18000
C 0.08600 -1.63200 -2.63500
C -1.45100 0.20500 -5.19700
C 1.37300 -2.07000 -4.92300
C 2.62600 -1.49000 -4.30600
N 0.15000 -2.14400 0.30300
C 0.17300 -3.13600 -0.68800
C 0.17300 -4.43800 0.00400
C 0.13300 -4.11100 1.35800
C 0.08300 -2.69500 1.50200
C 0.14900 -5.71500 -0.62300
C 0.09600 -4.62900 2.71600
O 0.20800 -5.74700 3.22100
C -0.25500 -3.42800 3.70100
C 0.71700 -3.48200 4.84800
O 1.93100 -3.25500 4.66900
O 0.03800 -3.55600 6.00300
C 0.94300 -3.58300 7.18300
H -1.85900 3.22000 2.49700
H -0.21800 2.45300 -3.47400
H 0.27600 -3.74700 -2.60500
H -1.55400 -0.94900 5.13200
H -1.58500 1.83100 4.66500
H -3.48400 -0.37700 3.96900
H -3.51100 1.02700 2.85800
H -3.85200 1.30100 4.54300
H 0.66900 1.09600 4.96600
H 1.13000 -0.63900 5.18900
H -0.84400 0.02600 7.12500
H 0.06200 1.47700 6.92100
H -1.34400 5.18600 1.93800
H -1.65100 5.96300 0.43200
H 0.00700 6.02000 1.08400
H -0.63500 6.74400 -1.40500
H 0.66500 6.97000 -2.70400
H 1.04800 6.46600 -1.03600
H 0.60800 0.50100 -4.89100
H -0.69200 -2.15600 -4.54700
H -1.26700 0.74000 -6.12900
H -2.20400 0.71400 -4.59600
H -1.96700 -0.72000 -5.45300
H 1.35600 -1.75900 -5.96700
H 1.45200 -3.15700 -4.90200
H 2.71400 -0.52200 -4.79800
H 3.48700 -2.12100 -4.52900
H 2.49500 -1.30300 -3.24000
H 0.86700 -6.33300 -0.08400
H 0.40400 -5.64200 -1.68000
H -0.89100 -5.99900 -0.46300
H -1.28300 -3.58100 4.02800
H 0.69800 -4.47800 7.75500
H 0.83300 -2.61900 7.68000
H 2.00000 -3.75400 6.97600
Mg 15.76629 1.42811 1.20370
C 17.56315 0.25753 4.08121
C 13.14093 2.06266 3.28683
C 14.00572 2.04101 -1.36383
C 18.04643 -0.32779 -0.76187
N 15.50691 1.15395 3.38310
C 16.27980 0.75862 4.38346
C 15.67170 0.98365 5.79382
C 14.11858 1.00171 5.38595
C 14.25156 1.46878 3.93790
C 13.48019 -0.37735 5.38628
C 16.11571 2.34977 6.42516
C 15.81293 2.49692 7.91795
H 16.75998 3.23286 8.75100
N 14.05447 2.41644 1.02636
C 13.11590 2.59579 1.97936
C 12.04027 3.37231 1.34361
C 12.34534 3.49529 -0.10778
C 13.49481 2.61881 -0.21071
C 10.90808 3.98058 2.11923
C 11.70048 4.26332 -1.22155
O 11.98725 4.03654 -2.45004
C 10.65558 5.22332 -0.83676
N 15.86137 0.76114 -0.76314
C 15.00710 1.22454 -1.69234
C 15.43809 0.81710 -3.08109
C 16.89743 0.18569 -2.91012
C 17.02645 0.25921 -1.37280
C 14.52993 -0.18602 -3.79199
C 18.03352 0.79415 -3.77715
C 18.31794 2.21138 -3.33449
N 17.60013 0.33843 1.54671
C 18.38069 -0.34153 0.58626
C 19.46782 -1.02689 1.31487
C 19.22900 -0.71448 2.66166
C 18.06290 0.09089 2.76697
C 20.46950 -1.85232 0.73056
C 19.69212 -0.89166 4.01917
O 20.68168 -1.40539 4.53934
C 18.56194 -0.37497 5.01018
C 19.21476 0.50455 6.04110
O 19.73725 1.58391 5.71157
O 18.92530 0.03465 7.26820
C 19.54160 0.88027 8.32504
H 12.18452 2.08610 3.80991
H 13.49787 2.31258 -2.29217
H 18.85446 -0.81483 -1.31191
H 15.86076 0.18629 6.50252
H 13.56467 1.73027 5.97225
H 14.20847 -1.15841 5.54657
H 13.01567 -0.48671 4.41504
H 12.66610 -0.41571 6.11575
H 15.48223 3.15184 6.02501
H 17.15821 2.53024 6.24839
H 15.55689 1.53726 8.38317
H 14.90827 3.09931 8.03081
H 10.86009 3.58213 3.14018
H 9.97911 3.63860 1.65025
H 10.92852 5.07242 2.10802
H 9.86218 4.70074 -0.30770
H 10.37772 5.73793 -1.75863
H 11.08440 5.94259 -0.13009
H 15.50226 1.67858 -3.73443
H 16.91338 -0.88147 -3.17613
H 14.15493 0.17918 -4.76672
H 13.70589 -0.42674 -3.13354
H 14.97399 -1.16335 -3.97316
H 17.72203 0.85225 -4.82298
H 18.95421 0.22109 -3.74671
H 17.55488 2.79226 -3.86118
H 19.31979 2.51248 -3.63396
H 18.13981 2.33118 -2.25952
H 21.40712 -1.58223 1.19792
H 20.51087 -1.72351 -0.34901
H 20.09639 -2.84067 1.01203
H 18.09297 -1.25195 5.45802
H 20.14988 0.21855 8.94938
H 18.70046 1.40411 8.81681
H 20.27697 1.61341 8.01490

