%nproc=24
%mem=175gb
#p cam-b3lyp/Def2SVP td=(nstates=5)

TDDFT excited states in gaussian

0 1
Mg 0.00000 0.00000 0.00000
C -0.21700 -2.21800 2.80100
C -1.25500 2.44200 2.02600
C -0.24500 1.85000 -2.56400
C 0.14600 -2.82400 -2.03700
N -0.61700 -0.00900 2.12600
C -0.59400 -0.90800 3.10500
C -0.93600 -0.30900 4.50200
C -1.77300 0.96400 4.03200
C -1.15500 1.16800 2.66000
C -3.26300 0.68500 3.86300
C 0.34500 0.11000 5.29900
C 0.12400 0.39700 6.78700
H 1.16800 0.03300 7.73300
N -0.18500 1.96100 -0.15200
C -0.70300 2.80000 0.77700
C -0.62000 4.15600 0.19300
C -0.18700 4.01500 -1.22500
C -0.21400 2.58300 -1.38000
C -0.88700 5.40600 0.97400
C 0.18100 5.01300 -2.27700
O 0.30300 4.69000 -3.50800
C 0.31000 6.41400 -1.83700
N -0.26500 -0.41300 -2.02900
C -0.27900 0.56900 -2.93700
C -0.19600 0.02400 -4.33200
C 0.12400 -1.53300 -4.18000
C 0.08600 -1.63200 -2.63500
C -1.45100 0.20500 -5.19700
C 1.37300 -2.07000 -4.92300
C 2.62600 -1.49000 -4.30600
N 0.15000 -2.14400 0.30300
C 0.17300 -3.13600 -0.68800
C 0.17300 -4.43800 0.00400
C 0.13300 -4.11100 1.35800
C 0.08300 -2.69500 1.50200
C 0.14900 -5.71500 -0.62300
C 0.09600 -4.62900 2.71600
O 0.20800 -5.74700 3.22100
C -0.25500 -3.42800 3.70100
C 0.71700 -3.48200 4.84800
O 1.93100 -3.25500 4.66900
O 0.03800 -3.55600 6.00300
C 0.94300 -3.58300 7.18300
H -1.85900 3.22000 2.49700
H -0.21800 2.45300 -3.47400
H 0.27600 -3.74700 -2.60500
H -1.55400 -0.94900 5.13200
H -1.58500 1.83100 4.66500
H -3.48400 -0.37700 3.96900
H -3.51100 1.02700 2.85800
H -3.85200 1.30100 4.54300
H 0.66900 1.09600 4.96600
H 1.13000 -0.63900 5.18900
H -0.84400 0.02600 7.12500
H 0.06200 1.47700 6.92100
H -1.34400 5.18600 1.93800
H -1.65100 5.96300 0.43200
H 0.00700 6.02000 1.08400
H -0.63500 6.74400 -1.40500
H 0.66500 6.97000 -2.70400
H 1.04800 6.46600 -1.03600
H 0.60800 0.50100 -4.89100
H -0.69200 -2.15600 -4.54700
H -1.26700 0.74000 -6.12900
H -2.20400 0.71400 -4.59600
H -1.96700 -0.72000 -5.45300
H 1.35600 -1.75900 -5.96700
H 1.45200 -3.15700 -4.90200
H 2.71400 -0.52200 -4.79800
H 3.48700 -2.12100 -4.52900
H 2.49500 -1.30300 -3.24000
H 0.86700 -6.33300 -0.08400
H 0.40400 -5.64200 -1.68000
H -0.89100 -5.99900 -0.46300
H -1.28300 -3.58100 4.02800
H 0.69800 -4.47800 7.75500
H 0.83300 -2.61900 7.68000
H 2.00000 -3.75400 6.97600
Mg 13.13057 1.18508 0.99147
C 13.34802 -1.56733 -1.30114
C 13.64314 3.25137 -1.67355
C 13.39365 3.59568 3.03773
C 13.77572 -1.08235 3.55823
N 13.44109 0.77584 -1.15989
C 13.44233 -0.30564 -1.92458
C 13.46996 -0.01530 -3.44921
C 14.13210 1.44702 -3.40357
C 13.68573 1.87395 -2.00673
C 15.65125 1.42095 -3.43238
C 12.03217 0.02450 -4.07625
C 11.99663 -0.00463 -5.60584
H 10.90603 -0.71942 -6.26323
N 12.98069 3.14193 0.69682
C 13.20214 3.81084 -0.45418
C 12.97937 5.23135 -0.14324
C 12.76931 5.36298 1.32416
C 13.06689 4.01181 1.75530
C 12.90130 6.29339 -1.20125
C 12.37922 6.51742 2.19668
O 12.48758 6.46380 3.47269
C 11.95494 7.74534 1.50842
N 13.73511 1.28870 2.97796
C 13.70595 2.45315 3.64962
C 13.91871 2.23522 5.12868
C 13.85557 0.65166 5.34307
C 13.69938 0.20335 3.87337
C 15.23085 2.77375 5.69847
C 12.83640 0.12320 6.38934
C 11.42548 0.36912 5.90538
N 13.31560 -0.96086 1.16113
C 13.61401 -1.70186 2.32558
C 13.74751 -3.11596 1.91946
C 13.53859 -3.09620 0.53222
C 13.31226 -1.76118 0.10096
C 14.07347 -4.20153 2.78051
C 13.46858 -3.89978 -0.66698
O 13.49395 -5.10622 -0.90694
C 13.46745 -2.92963 -1.92603
C 12.36972 -3.37366 -2.85357
O 11.17820 -3.29469 -2.50620
O 12.89100 -3.61234 -4.07080
C 11.83901 -4.04500 -5.02890
H 14.02252 3.97240 -2.39816
H 13.38822 4.37595 3.80235
H 13.87911 -1.86357 4.31432
H 14.09198 -0.68719 -4.02838
H 13.70051 2.09975 -4.15790
H 16.03840 0.41550 -3.35935
H 15.97175 2.01228 -2.58465
H 16.02044 1.94220 -4.32026
H 11.59055 1.01321 -3.89686
H 11.42403 -0.76803 -3.68551
H 12.96232 -0.29817 -6.03507
H 11.84058 1.01416 -5.96879
H 13.25866 5.92310 -2.17005
H 13.62059 7.07234 -0.92609
H 11.90779 6.74051 -1.27674
H 12.75648 8.09128 0.86010
H 11.63101 8.42596 2.29816
H 11.10554 7.50656 0.85872
H 13.12849 2.69973 5.70563
H 14.81730 0.24932 5.69383
H 15.08475 3.48860 6.53016
H 15.78845 3.23495 4.89417
H 15.92516 2.01503 6.05553
H 12.94154 0.66948 7.32991
H 12.95589 -0.93136 6.61432
H 11.24207 1.40759 6.19695
H 10.72878 -0.30755 6.39606
H 11.37022 0.31912 4.81172
H 13.41533 -5.01810 2.51486
H 13.96351 -3.92565 3.82721
H 15.11958 -4.36107 2.50578
H 14.45069 -2.99792 -2.39309
H 12.15988 -5.00573 -5.44331
H 11.71800 -3.20536 -5.73892
H 10.86765 -4.30329 -4.62370

