%nproc=24
%mem=175gb
#p cam-b3lyp/Def2SVP td=(nstates=5)

TDDFT excited states in gaussian

0 1
Mg 0.00000 0.00000 0.00000
C -0.21700 -2.21800 2.80100
C -1.25500 2.44200 2.02600
C -0.24500 1.85000 -2.56400
C 0.14600 -2.82400 -2.03700
N -0.61700 -0.00900 2.12600
C -0.59400 -0.90800 3.10500
C -0.93600 -0.30900 4.50200
C -1.77300 0.96400 4.03200
C -1.15500 1.16800 2.66000
C -3.26300 0.68500 3.86300
C 0.34500 0.11000 5.29900
C 0.12400 0.39700 6.78700
H 1.16800 0.03300 7.73300
N -0.18500 1.96100 -0.15200
C -0.70300 2.80000 0.77700
C -0.62000 4.15600 0.19300
C -0.18700 4.01500 -1.22500
C -0.21400 2.58300 -1.38000
C -0.88700 5.40600 0.97400
C 0.18100 5.01300 -2.27700
O 0.30300 4.69000 -3.50800
C 0.31000 6.41400 -1.83700
N -0.26500 -0.41300 -2.02900
C -0.27900 0.56900 -2.93700
C -0.19600 0.02400 -4.33200
C 0.12400 -1.53300 -4.18000
C 0.08600 -1.63200 -2.63500
C -1.45100 0.20500 -5.19700
C 1.37300 -2.07000 -4.92300
C 2.62600 -1.49000 -4.30600
N 0.15000 -2.14400 0.30300
C 0.17300 -3.13600 -0.68800
C 0.17300 -4.43800 0.00400
C 0.13300 -4.11100 1.35800
C 0.08300 -2.69500 1.50200
C 0.14900 -5.71500 -0.62300
C 0.09600 -4.62900 2.71600
O 0.20800 -5.74700 3.22100
C -0.25500 -3.42800 3.70100
C 0.71700 -3.48200 4.84800
O 1.93100 -3.25500 4.66900
O 0.03800 -3.55600 6.00300
C 0.94300 -3.58300 7.18300
H -1.85900 3.22000 2.49700
H -0.21800 2.45300 -3.47400
H 0.27600 -3.74700 -2.60500
H -1.55400 -0.94900 5.13200
H -1.58500 1.83100 4.66500
H -3.48400 -0.37700 3.96900
H -3.51100 1.02700 2.85800
H -3.85200 1.30100 4.54300
H 0.66900 1.09600 4.96600
H 1.13000 -0.63900 5.18900
H -0.84400 0.02600 7.12500
H 0.06200 1.47700 6.92100
H -1.34400 5.18600 1.93800
H -1.65100 5.96300 0.43200
H 0.00700 6.02000 1.08400
H -0.63500 6.74400 -1.40500
H 0.66500 6.97000 -2.70400
H 1.04800 6.46600 -1.03600
H 0.60800 0.50100 -4.89100
H -0.69200 -2.15600 -4.54700
H -1.26700 0.74000 -6.12900
H -2.20400 0.71400 -4.59600
H -1.96700 -0.72000 -5.45300
H 1.35600 -1.75900 -5.96700
H 1.45200 -3.15700 -4.90200
H 2.71400 -0.52200 -4.79800
H 3.48700 -2.12100 -4.52900
H 2.49500 -1.30300 -3.24000
H 0.86700 -6.33300 -0.08400
H 0.40400 -5.64200 -1.68000
H -0.89100 -5.99900 -0.46300
H -1.28300 -3.58100 4.02800
H 0.69800 -4.47800 7.75500
H 0.83300 -2.61900 7.68000
H 2.00000 -3.75400 6.97600
Mg 31.52268 2.84188 2.39765
C 29.63720 0.03795 1.18852
C 29.77622 4.77519 0.19611
C 33.46944 5.24256 3.11477
C 33.85299 0.56453 3.63420
N 29.93672 2.35422 0.93506
C 29.25715 1.26561 0.60726
C 28.05345 1.51952 -0.33942
C 28.55796 2.88984 -1.00766
C 29.45405 3.39656 0.12058
C 29.41851 2.67642 -2.24186
C 26.70938 1.72332 0.44414
C 25.44701 1.66793 -0.41905
H 24.23858 1.07969 0.15203
N 31.30568 4.79596 2.12737
C 30.53896 5.40916 1.20141
C 30.74049 6.85227 1.40385
C 31.81503 7.03833 2.41651
C 32.26257 5.66979 2.58045
C 29.89654 7.89429 0.72904
C 32.35946 8.24938 3.11161
O 33.45408 8.20857 3.77717
C 31.62275 9.50604 2.91273
N 33.49123 2.91036 3.06283
C 34.08374 4.08286 3.34938
C 35.39464 3.87028 4.06822
C 35.44327 2.31119 4.42100
C 34.13574 1.85595 3.73651
C 36.65134 4.25460 3.28759
C 35.66801 1.93339 5.91078
C 34.46710 2.34128 6.73348
N 31.64829 0.69335 2.58764
C 32.72487 -0.05511 3.11194
C 32.39452 -1.48279 2.92480
C 31.14922 -1.46546 2.27871
C 30.74221 -0.12170 2.05926
C 33.22195 -2.58263 3.28788
C 30.09139 -2.27833 1.72290
O 29.84431 -3.48332 1.69667
C 29.12417 -1.34102 0.87891
C 27.70767 -1.66519 1.26745
O 27.29927 -1.43317 2.41896
O 27.01135 -1.99072 0.16312
C 25.59738 -2.30985 0.49578
H 29.45012 5.42928 -0.61303
H 34.12970 6.03283 3.47950
H 34.48261 -0.20806 4.08070
H 27.90893 0.76463 -1.10298
H 27.73132 3.57539 -1.17517
H 29.64723 1.63265 -2.39796
H 30.32555 3.24079 -2.06922
H 28.94296 3.13025 -3.11606
H 26.65262 2.76228 0.79356
H 26.62750 1.01971 1.24966
H 25.64546 1.24917 -1.41314
H 25.11868 2.69065 -0.61971
H 29.29874 7.46336 -0.08357
H 30.58229 8.58418 0.22540
H 29.28128 8.45867 1.43303
H 31.58361 9.73755 1.85097
H 32.11219 10.23715 3.55910
H 30.58768 9.36056 3.24148
H 35.42776 4.44006 4.98874
H 36.26567 1.80069 3.89861
H 37.28034 4.99864 3.81185
H 36.35001 4.62735 2.31764
H 37.30311 3.42356 3.02343
H 36.52229 2.48145 6.31574
H 35.86118 0.87690 6.06406
H 34.65454 3.40011 6.93558
H 34.42109 1.76555 7.65568
H 33.54548 2.27641 6.14352
H 32.57744 -3.31717 3.75216
H 34.02181 -2.27426 3.95788
H 33.59999 -2.87522 2.30465
H 29.31474 -1.53921 -0.17655
H 25.39481 -3.31093 0.10272
H 24.99811 -1.47620 0.08389
H 25.34535 -2.43839 1.54192

