%nproc=24
%mem=175gb
#p cam-b3lyp/Def2SVP td=(nstates=5)

TDDFT excited states in gaussian

0 1
Mg 10.50090 0.94879 0.79579
C 9.61077 -1.86606 -1.24465
C 9.90849 2.91871 -1.92506
C 11.70666 3.39007 2.42480
C 12.08955 -1.28793 2.94498
N 9.84749 0.47118 -1.26266
C 9.47973 -0.62691 -1.90554
C 8.86567 -0.37549 -3.30885
C 9.54107 1.04890 -3.61519
C 9.75053 1.53338 -2.18198
C 10.90039 0.93867 -4.28558
C 7.30058 -0.27189 -3.26662
C 6.61473 -0.33602 -4.63309
H 5.32067 -1.00546 -4.73163
N 10.31691 2.90322 0.50442
C 10.05230 3.53091 -0.66060
C 10.03968 4.96862 -0.34917
C 10.48112 5.14705 1.06080
C 10.88068 3.79239 1.38535
C 9.55960 6.00745 -1.32066
C 10.54640 6.34196 1.96309
O 11.18661 6.31334 3.07311
C 9.91781 7.57433 1.46548
N 11.89875 1.06704 2.33019
C 12.20486 2.24724 2.89707
C 13.01955 2.05377 4.15375
C 12.99154 0.48174 4.44615
C 12.20571 0.00727 3.20409
C 14.46947 2.53299 4.08695
C 12.49621 0.03556 5.84909
C 11.02457 0.34688 5.99993
N 10.65589 -1.19934 0.96777
C 11.39311 -1.92725 1.92732
C 11.28473 -3.35596 1.56750
C 10.50488 -3.35830 0.40117
C 10.16901 -2.02368 0.04696
C 11.90382 -4.43666 2.25665
C 9.89831 -4.18558 -0.61686
O 9.77131 -5.39705 -0.78993
C 9.39837 -3.24758 -1.79864
C 7.99327 -3.65291 -2.15066
O 7.06798 -3.50017 -1.33389
O 7.93555 -3.94925 -3.46185
C 6.55920 -4.34647 -3.86145
H 9.97055 3.60006 -2.77406
H 12.05873 4.18772 3.08305
H 12.47475 -2.05514 3.62003
H 9.15411 -1.09437 -4.06634
H 8.85500 1.70593 -4.14336
H 11.24173 -0.08447 -4.33850
H 11.57497 1.53182 -3.68212
H 10.87572 1.41721 -5.26880
H 7.01706 0.74364 -2.96156
H 6.88656 -1.02011 -2.61903
H 7.29259 -0.69248 -5.41819
H 6.35904 0.68073 -4.94108
H 9.45458 5.59475 -2.33162
H 10.35763 6.75211 -1.41283
H 8.64733 6.50654 -0.98701
H 10.37908 7.85991 0.52307
H 9.98888 8.29064 2.28629
H 8.86371 7.36696 1.24983
H 12.56999 2.57484 4.99011
H 13.99431 0.03574 4.37285
H 14.72047 3.27470 4.86857
H 14.64833 2.94325 3.10195
H 15.21925 1.74612 4.14911
H 13.01403 0.59783 6.63003
H 12.65859 -1.01823 6.04950
H 11.02418 1.40062 6.29442
H 10.57774 -0.27840 6.77025
H 10.50607 0.27356 5.03690
H 11.16362 -5.22200 2.33313
H 12.26190 -4.12992 3.23719
H 12.72554 -4.66006 1.57098
H 10.08483 -3.38109 -2.63561
H 6.63445 -5.33313 -4.32893
H 6.18003 -3.51887 -4.48999
H 5.84421 -4.54110 -3.07065

