%nproc=24
%mem=175gb
#p cam-b3lyp/Def2SVP td=(nstates=5)

TDDFT excited states in gaussian

0 1
Mg 10.51150 0.95099 0.80791
C 8.86776 -1.46875 2.88685
C 8.11591 3.18166 1.76703
C 11.66567 2.96807 -1.35235
C 12.04866 -1.71028 -0.83540
N 8.76943 0.76232 2.15767
C 8.27987 -0.18774 2.94002
C 7.14447 0.28183 3.88867
C 6.63544 1.55001 3.04518
C 7.92615 1.88115 2.29879
C 5.56742 1.20254 2.02150
C 7.68256 0.70875 5.29942
C 6.60574 0.88313 6.37263
H 6.92604 0.50872 7.74730
N 10.28896 2.91565 0.63717
C 9.26724 3.66260 1.10561
C 9.56285 5.04633 0.70302
C 10.75844 5.03182 -0.18303
C 10.94230 3.60460 -0.35430
C 8.79216 6.22639 1.21966
C 11.58997 6.12221 -0.78784
O 12.43846 5.88438 -1.71861
C 11.31530 7.49003 -0.32403
N 11.52068 0.66843 -0.98766
C 11.95762 1.71669 -1.70750
C 12.88999 1.27147 -2.80879
C 13.18005 -0.27577 -2.52683
C 12.25403 -0.48905 -1.30930
C 12.36381 1.43884 -4.23410
C 14.66881 -0.70224 -2.40686
C 15.27957 -0.09972 -1.16213
N 10.63060 -1.18837 1.08536
C 11.30731 -2.11838 0.26608
C 11.00432 -3.46462 0.79359
C 10.14701 -3.22384 1.87781
C 9.91480 -1.82752 2.00383
C 11.46321 -4.69553 0.24551
C 9.37717 -3.83411 2.93781
O 9.25659 -4.97725 3.37649
C 8.41371 -2.73393 3.56050
C 8.52841 -2.81019 5.05835
O 9.59689 -2.52237 5.62589
O 7.30458 -2.99799 5.58499
C 7.36500 -3.06915 7.06928
H 7.28963 3.89086 1.82334
H 12.17555 3.62735 -2.05865
H 12.56785 -2.58535 -1.23209
H 6.33638 -0.42843 4.01636
H 6.35155 2.37084 3.69864
H 5.41115 0.13654 1.94830
H 5.92320 1.59835 1.07927
H 4.64202 1.74127 2.24452
H 8.05945 1.73804 5.24242
H 8.43015 0.02194 5.64587
H 5.64657 0.44643 6.06894
H 6.39262 1.94943 6.48035
H 7.86829 5.91463 1.72234
H 8.44883 6.79131 0.34625
H 9.39765 6.88212 1.84900
H 10.27435 7.73571 -0.52033
H 12.06895 8.11795 -0.80319
H 11.44701 7.52384 0.76322
H 13.82464 1.81727 -2.76842
H 12.79241 -0.91642 -3.33252
H 13.02297 2.05641 -4.87300
H 11.37209 1.86835 -4.18360
H 12.18599 0.50967 -4.77282
H 15.24282 -0.31568 -3.25257
H 14.80974 -1.77775 -2.38667
H 15.55621 0.90808 -1.48599
H 16.15365 -0.66807 -0.85067
H 14.53194 0.00312 -0.36707
H 11.77337 -5.31121 1.07932
H 12.27794 -4.53821 -0.45823
H 10.55216 -5.03942 -0.25148
H 7.40207 -2.95145 3.21577
H 6.90038 -4.01549 7.36294
H 6.88781 -2.13961 7.43260
H 8.34278 -3.16253 7.52718

