%nproc=24
%mem=175gb
#p cam-b3lyp/Def2SVP td=(nstates=5)

TDDFT excited states in gaussian

0 1
Mg 0.00000 0.00000 0.00000
C -0.21700 -2.21800 2.80100
C -1.25500 2.44200 2.02600
C -0.24500 1.85000 -2.56400
C 0.14600 -2.82400 -2.03700
N -0.61700 -0.00900 2.12600
C -0.59400 -0.90800 3.10500
C -0.93600 -0.30900 4.50200
C -1.77300 0.96400 4.03200
C -1.15500 1.16800 2.66000
C -3.26300 0.68500 3.86300
C 0.34500 0.11000 5.29900
C 0.12400 0.39700 6.78700
H 1.16800 0.03300 7.73300
N -0.18500 1.96100 -0.15200
C -0.70300 2.80000 0.77700
C -0.62000 4.15600 0.19300
C -0.18700 4.01500 -1.22500
C -0.21400 2.58300 -1.38000
C -0.88700 5.40600 0.97400
C 0.18100 5.01300 -2.27700
O 0.30300 4.69000 -3.50800
C 0.31000 6.41400 -1.83700
N -0.26500 -0.41300 -2.02900
C -0.27900 0.56900 -2.93700
C -0.19600 0.02400 -4.33200
C 0.12400 -1.53300 -4.18000
C 0.08600 -1.63200 -2.63500
C -1.45100 0.20500 -5.19700
C 1.37300 -2.07000 -4.92300
C 2.62600 -1.49000 -4.30600
N 0.15000 -2.14400 0.30300
C 0.17300 -3.13600 -0.68800
C 0.17300 -4.43800 0.00400
C 0.13300 -4.11100 1.35800
C 0.08300 -2.69500 1.50200
C 0.14900 -5.71500 -0.62300
C 0.09600 -4.62900 2.71600
O 0.20800 -5.74700 3.22100
C -0.25500 -3.42800 3.70100
C 0.71700 -3.48200 4.84800
O 1.93100 -3.25500 4.66900
O 0.03800 -3.55600 6.00300
C 0.94300 -3.58300 7.18300
H -1.85900 3.22000 2.49700
H -0.21800 2.45300 -3.47400
H 0.27600 -3.74700 -2.60500
H -1.55400 -0.94900 5.13200
H -1.58500 1.83100 4.66500
H -3.48400 -0.37700 3.96900
H -3.51100 1.02700 2.85800
H -3.85200 1.30100 4.54300
H 0.66900 1.09600 4.96600
H 1.13000 -0.63900 5.18900
H -0.84400 0.02600 7.12500
H 0.06200 1.47700 6.92100
H -1.34400 5.18600 1.93800
H -1.65100 5.96300 0.43200
H 0.00700 6.02000 1.08400
H -0.63500 6.74400 -1.40500
H 0.66500 6.97000 -2.70400
H 1.04800 6.46600 -1.03600
H 0.60800 0.50100 -4.89100
H -0.69200 -2.15600 -4.54700
H -1.26700 0.74000 -6.12900
H -2.20400 0.71400 -4.59600
H -1.96700 -0.72000 -5.45300
H 1.35600 -1.75900 -5.96700
H 1.45200 -3.15700 -4.90200
H 2.71400 -0.52200 -4.79800
H 3.48700 -2.12100 -4.52900
H 2.49500 -1.30300 -3.24000
H 0.86700 -6.33300 -0.08400
H 0.40400 -5.64200 -1.68000
H -0.89100 -5.99900 -0.46300
H -1.28300 -3.58100 4.02800
H 0.69800 -4.47800 7.75500
H 0.83300 -2.61900 7.68000
H 2.00000 -3.75400 6.97600
Mg 15.77578 1.42356 1.19547
C 17.91171 -0.70215 3.14437
C 16.95645 4.04344 3.03308
C 13.58484 3.25357 -0.18955
C 13.96495 -1.42495 0.32794
N 17.24309 1.53025 2.84710
C 18.03666 0.66636 3.46216
C 19.07536 1.31401 4.41673
C 18.30025 2.68751 4.71932
C 17.47044 2.78663 3.44093
C 17.34862 2.59392 5.90041
C 20.45303 1.57502 3.71252
C 21.60492 1.91735 4.66000
H 22.94389 1.43711 4.32984
N 15.66683 3.39867 1.03543
C 16.22488 4.31355 1.85572
C 15.83396 5.62641 1.31932
C 14.86381 5.41059 0.21164
C 14.64690 3.98230 0.32575
C 16.43193 6.91475 1.80516
C 14.22581 6.33847 -0.77740
O 13.23098 5.97346 -1.49844
C 14.73960 7.71558 -0.81031
N 13.90601 1.01507 0.38341
C 13.18083 1.98319 -0.20377
C 12.00514 1.40479 -0.95450
C 12.22973 -0.17860 -0.95051
C 13.50571 -0.25101 -0.08331
C 10.62577 1.72435 -0.37864
C 12.23206 -0.89257 -2.32997
C 13.44298 -0.46761 -3.12901
N 15.99458 -0.70642 1.48419
C 15.10739 -1.72018 1.06079
C 15.62426 -2.99947 1.58871
C 16.77280 -2.63548 2.30764
C 16.94738 -1.22633 2.24992
C 15.01629 -4.27540 1.41994
C 17.87129 -3.12171 3.11113
O 18.29110 -4.23444 3.42633
C 18.58707 -1.87779 3.79428
C 20.07058 -2.03012 3.59800
O 20.56598 -1.97828 2.45849
O 20.67974 -1.99379 4.79716
C 22.15376 -2.13000 4.65384
H 17.08858 4.89821 3.69701
H 12.85894 3.82574 -0.77194
H 13.51177 -2.36957 0.01972
H 19.24468 0.77161 5.33918
H 18.99122 3.52343 4.79116
H 17.26237 1.58261 6.26914
H 16.39252 2.94677 5.53651
H 17.65021 3.29491 6.68397
H 20.39269 2.51193 3.14393
H 20.72871 0.74280 3.09444
H 21.36129 1.68849 5.70462
H 21.75226 3.00004 4.65017
H 16.99268 6.77173 2.73710
H 15.59882 7.56774 2.08693
H 17.03084 7.41554 1.04150
H 14.62468 8.16748 0.17205
H 14.22187 8.20090 -1.63994
H 15.81500 7.68289 -1.01784
H 11.99048 1.75506 -1.97929
H 11.43959 -0.70080 -0.39119
H 9.95533 2.22391 -1.10323
H 10.75761 2.33765 0.50284
H 10.08004 0.86848 0.01491
H 11.35623 -0.59509 -2.91184
H 12.21725 -1.97485 -2.25619
H 13.12328 0.47770 -3.57763
H 13.67736 -1.20725 -3.89193
H 14.29209 -0.24963 -2.47087
H 15.81114 -4.97017 1.18330
H 14.25938 -4.25493 0.63864
H 14.57859 -4.41562 2.41192
H 18.31137 -1.88008 4.84954
H 22.45833 -2.97714 5.27614
H 22.57188 -1.13901 4.91241
H 22.53760 -2.42990 3.68577

