%nproc=24
%mem=175gb
#p cam-b3lyp/Def2SVP td=(nstates=5)

TDDFT excited states in gaussian

0 1
Mg 13.12999 1.18633 1.00321
C 10.87887 -1.56679 0.52169
C 10.84715 3.14109 -0.60991
C 15.27484 3.52450 1.01045
C 15.65858 -1.15358 1.52928
N 11.15518 0.73085 0.11727
C 10.37490 -0.33724 0.04878
C 8.94553 -0.05624 -0.48743
C 9.25963 1.28028 -1.32046
C 10.47587 1.77457 -0.54000
C 9.68897 1.00970 -2.75286
C 7.91686 0.21431 0.66611
C 6.44822 0.19018 0.23685
H 5.45871 -0.33997 1.17082
N 12.89922 3.14155 0.75335
C 11.90245 3.76519 0.09093
C 12.20033 5.20326 0.17693
C 13.54068 5.36808 0.80225
C 13.97536 3.98692 0.86191
C 11.22088 6.26324 -0.23603
C 14.30993 6.57093 1.25788
O 15.55505 6.50145 1.55398
C 13.58623 7.85067 1.25769
N 15.20889 1.19260 1.02584
C 15.89619 2.34701 1.07942
C 17.35816 2.09870 1.36467
C 17.46640 0.54618 1.73284
C 15.99806 0.12784 1.49967
C 18.32251 2.41913 0.22285
C 18.12974 0.18962 3.09134
C 17.25542 0.65937 4.23165
N 13.24316 -0.96125 1.21093
C 14.40599 -1.73982 1.40000
C 13.99089 -3.15724 1.36783
C 12.60788 -3.10507 1.13747
C 12.19380 -1.75133 1.01329
C 14.85638 -4.28054 1.49131
C 11.40586 -3.88772 0.96053
O 11.12645 -5.08265 1.04880
C 10.25372 -2.93098 0.42799
C 9.01795 -3.19296 1.24454
O 8.99329 -2.92274 2.45820
O 8.00446 -3.51341 0.41961
C 6.75394 -3.77155 1.18209
H 10.30654 3.79103 -1.29853
H 16.03916 4.29598 1.12915
H 16.37180 -1.94071 1.78309
H 8.54896 -0.82001 -1.14558
H 8.44288 1.99350 -1.24555
H 9.82644 -0.04495 -2.93986
H 10.62154 1.54226 -2.88602
H 8.98012 1.46400 -3.45106
H 8.00253 1.26139 0.98396
H 8.06710 -0.46957 1.47873
H 6.31642 -0.25546 -0.75662
H 6.10501 1.22054 0.11609
H 10.38814 5.83950 -0.81082
H 11.73758 6.91628 -0.94766
H 10.87114 6.86458 0.60584
H 13.22735 8.06245 0.25329
H 14.27361 8.57518 1.69869
H 12.69987 7.75144 1.89419
H 17.69184 2.68491 2.21209
H 18.07085 -0.00566 0.99802
H 19.10511 3.14879 0.50429
H 17.74714 2.78386 -0.61766
H 18.83502 1.55869 -0.20398
H 19.08359 0.71250 3.19583
H 18.32881 -0.87025 3.20982
H 17.52817 1.71404 4.33346
H 17.47975 0.10419 5.14021
H 16.19492 0.61815 3.95726
H 14.36534 -4.98055 2.15416
H 15.83331 -3.98979 1.87191
H 14.90245 -4.60678 0.44886
H 10.10211 -3.15717 -0.62815
H 6.40944 -4.77173 0.90165
H 6.08212 -2.92390 0.94995
H 6.83436 -3.86962 2.25837

