%nproc=24
%mem=175gb
#p cam-b3lyp/Def2SVP td=(nstates=5)

TDDFT excited states in gaussian

0 1
Mg 31.53383 2.84357 2.40471
C 30.00758 0.44583 4.59570
C 29.21849 5.09593 3.50047
C 32.56365 4.84174 0.16546
C 32.94653 0.16337 0.68234
N 29.87879 2.67394 3.86222
C 29.43292 1.73125 4.67884
C 28.36261 2.21354 5.69441
C 27.81021 3.48117 4.87780
C 29.05368 3.79943 4.05004
C 26.67763 3.13629 3.92510
C 28.99119 2.64354 7.06627
C 27.98516 2.83085 8.20406
H 28.38867 2.46092 9.55787
N 31.31437 4.80890 2.23779
C 30.32921 5.56541 2.76547
C 30.60835 6.94500 2.33772
C 31.74575 6.91761 1.37841
C 31.90877 5.48830 1.20357
C 29.87969 8.13304 2.89544
C 32.54503 7.99907 0.71674
O 33.33170 7.75064 -0.26420
C 32.30936 9.37107 1.18957
N 32.42621 2.54502 0.55083
C 32.82417 3.58658 -0.20063
C 33.68244 3.12933 -1.35592
C 33.97911 1.58147 -1.08446
C 33.13001 1.38077 0.18996
C 33.06887 3.29345 -2.74623
C 35.46953 1.14500 -1.05596
C 36.16140 1.74925 0.14470
N 31.65557 0.70480 2.68556
C 32.27312 -0.23402 1.83038
C 31.99473 -1.57546 2.38307
C 31.20891 -1.32326 3.51769
C 30.99459 0.07528 3.65059
C 32.40988 -2.81229 1.81383
C 30.50308 -1.92282 4.62721
O 30.40254 -3.06290 5.07871
C 29.58817 -0.81275 5.30329
C 29.79625 -0.88247 6.79137
O 30.90023 -0.59950 7.28913
O 28.60670 -1.05896 7.39484
C 28.75980 -1.12326 8.87276
H 28.40222 5.81126 3.60478
H 33.03260 5.49390 -0.57498
H 33.43380 -0.71731 0.25850
H 27.55932 1.50970 5.87641
H 27.57354 4.30720 5.54340
H 26.50981 2.07108 3.86756
H 26.97617 3.52493 2.96028
H 25.77176 3.68270 4.20292
H 29.37074 3.66983 6.98022
H 29.75439 1.95313 7.36875
H 27.00585 2.39951 7.96355
H 27.78649 3.89916 8.31925
H 28.98715 7.83035 3.45681
H 29.48600 8.69610 2.04231
H 30.52799 8.78752 3.48198
H 31.25983 9.62320 1.05774
H 33.03567 9.99125 0.66066
H 32.50938 9.40929 2.26620
H 34.62147 3.66865 -1.37725
H 33.53725 0.93965 -1.86077
H 33.69075 3.90317 -3.42857
H 32.08523 3.73026 -2.63584
H 32.85122 2.36294 -3.26774
H 35.99187 1.52330 -1.93812
H 35.60413 0.06862 -1.03892
H 36.42399 2.75345 -0.20128
H 37.04944 1.17623 0.40368
H 35.46593 1.86132 0.98459
H 32.76763 -3.42606 2.62980
H 33.17982 -2.66423 1.05948
H 31.46708 -3.15211 1.37690
H 28.55540 -1.02475 5.02396
H 28.30813 -2.06482 9.20008
H 28.31273 -0.18858 9.26036
H 29.76377 -1.22136 9.26884

