%nproc=24
%mem=175gb
#p cam-b3lyp/Def2SVP td=(nstates=5)

TDDFT excited states in gaussian

0 1
Mg 31.52541 2.84101 2.38781
C 32.06852 0.11737 0.11495
C 32.33787 4.94339 -0.17236
C 31.49486 5.23201 4.47339
C 31.87668 0.55396 4.99391
N 32.10906 2.45985 0.28869
C 32.22186 1.38705 -0.47989
C 32.43615 1.69465 -1.98622
C 33.06600 3.16501 -1.84416
C 32.44191 3.57045 -0.51044
C 34.57700 3.15941 -1.68237
C 31.08786 1.72235 -2.78832
C 31.24474 1.70974 -4.31048
H 30.25565 0.98791 -5.10618
N 31.38520 4.79886 2.09501
C 31.73942 5.48339 0.98721
C 31.45880 6.89728 1.28103
C 31.06458 7.00980 2.71164
C 31.32540 5.65799 3.16404
C 31.49851 7.96988 0.23157
C 30.55145 8.14921 3.53907
O 30.49980 8.08285 4.81804
C 30.19897 9.37896 2.81453
N 31.87464 2.93056 4.43534
C 31.74459 4.08699 5.10890
C 31.77343 3.85548 6.60087
C 31.70696 2.26894 6.79081
C 31.74275 1.83496 5.30900
C 32.99583 4.40499 7.33582
C 30.57248 1.71542 7.69593
C 29.22992 1.94798 7.04107
N 31.71892 0.69597 2.55925
C 31.87977 -0.05391 3.74496
C 32.08368 -1.46152 3.34559
C 32.05001 -1.42912 1.94334
C 31.86013 -0.09250 1.49961
C 32.31490 -2.55217 4.23054
C 32.14255 -2.22018 0.73737
O 32.21535 -3.42344 0.49121
C 32.28513 -1.23620 -0.50273
C 31.31888 -1.68442 -1.56480
O 30.09220 -1.62511 -1.36897
O 31.99204 -1.90263 -2.70919
C 31.07484 -2.33852 -3.79572
H 32.79455 5.67740 -0.83687
H 31.38229 6.00359 5.23855
H 31.89583 -0.23418 5.74965
H 33.13555 1.03754 -2.48902
H 32.72291 3.82031 -2.64055
H 34.96653 2.15843 -1.57075
H 34.78008 3.74548 -0.79562
H 35.04694 3.69534 -2.51199
H 30.61290 2.70306 -2.65651
H 30.44713 0.91754 -2.48441
H 32.26078 1.43382 -4.61787
H 31.12061 2.73034 -4.68060
H 31.97983 7.61514 -0.68816
H 32.16624 8.75519 0.60209
H 30.51590 8.40460 0.03619
H 31.07034 9.74268 2.27518
H 29.76875 10.04642 3.56372
H 29.44126 9.13618 2.06117
H 30.91045 4.30304 7.07842
H 32.62289 1.87551 7.25569
H 32.73626 5.10857 8.14926
H 33.64308 4.88245 6.61219
H 33.65088 3.65163 7.77006
H 30.55094 2.25257 8.64733
H 30.67816 0.66011 7.92425
H 28.99632 2.98063 7.31703
H 28.48713 1.25673 7.43410
H 29.31291 1.90941 5.94870
H 31.70718 -3.37438 3.87677
H 32.07061 -2.28942 5.25770
H 33.38940 -2.69476 4.08777
H 33.32004 -1.28626 -0.84335
H 31.45906 -3.29025 -4.17556
H 31.03157 -1.49273 -4.50742
H 30.06421 -2.61415 -3.51804

