%nproc=24
%mem=175gb
#p cam-b3lyp/Def2SVP td=(nstates=5)

TDDFT excited states in gaussian

0 1
Mg 10.51046 0.93886 0.80601
C 8.15076 2.41016 3.07451
C 12.77103 0.98984 3.35981
C 12.73661 0.06505 -1.27922
C 8.48049 2.04297 -1.80279
N 10.36122 1.63387 2.90051
C 9.39633 2.11764 3.66817
C 9.76323 2.22288 5.17278
C 11.36042 2.30218 5.02584
C 11.52045 1.56641 3.69704
C 11.87915 3.71997 4.85226
C 9.32342 0.95471 5.98538
C 9.37014 1.11736 7.50628
H 8.35204 0.44615 8.30966
N 12.29873 0.12998 1.09993
C 13.06662 0.23270 2.20495
C 14.29443 -0.52336 1.91336
C 14.25929 -0.94260 0.48587
C 13.08082 -0.23213 0.03142
C 15.31697 -0.85071 2.96250
C 15.14755 -1.82534 -0.33751
O 15.06394 -1.86012 -1.61604
C 16.18047 -2.57741 0.38978
N 10.71014 1.22027 -1.24418
C 11.74773 0.69200 -1.91668
C 11.53660 0.78848 -3.40883
C 10.02512 1.27541 -3.59828
C 9.63452 1.47045 -2.11680
C 12.47424 1.73875 -4.15330
C 9.10982 0.39697 -4.49453
C 8.86372 -0.93801 -3.82920
N 8.56546 1.86357 0.63303
C 7.91484 2.26600 -0.55391
C 6.66658 2.94871 -0.15617
C 6.68906 2.91616 1.24630
C 7.87788 2.27743 1.69152
C 5.72160 3.53761 -1.04292
C 5.98254 3.28634 2.45149
O 4.88001 3.77405 2.69706
C 6.95817 3.08762 3.69047
C 6.20532 2.34482 4.76004
O 5.83467 1.17241 4.57379
O 6.23739 3.06023 5.89913
C 5.51319 2.35933 6.99278
H 13.61969 1.16823 4.02074
H 13.41909 -0.31393 -2.04346
H 7.74596 2.32894 -2.55867
H 9.39107 3.11054 5.67010
H 11.85804 1.75882 5.82489
H 11.07529 4.43187 4.73758
H 12.49688 3.70050 3.96396
H 12.54710 3.98075 5.67819
H 10.07797 0.16794 5.85730
H 8.34544 0.63094 5.68647
H 9.46484 2.16823 7.80572
H 10.28521 0.64943 7.87737
H 15.15381 -0.26946 3.87843
H 16.28421 -0.49979 2.58679
H 15.38416 -1.92166 3.16554
H 16.82545 -1.88253 0.92232
H 16.65510 -3.21803 -0.35602
H 15.69183 -3.19821 1.14902
H 11.65554 -0.17967 -3.87963
H 9.97278 2.26752 -4.07030
H 13.04179 1.24516 -4.96467
H 13.14861 2.18532 -3.43473
H 11.99389 2.61135 -4.59265
H 9.60354 0.18337 -5.44572
H 8.15617 0.86068 -4.72368
H 9.75036 -1.51752 -4.10331
H 7.95658 -1.39756 -4.21643
H 8.85929 -0.83880 -2.73751
H 4.74053 3.25566 -0.68443
H 5.88046 3.20979 -2.06813
H 5.96118 4.59582 -0.90854
H 7.27133 4.07804 4.02299
H 4.75500 3.05276 7.36960
H 6.29330 2.03041 7.70481
H 4.90319 1.50518 6.72300

