%nproc=24
%mem=175gb
#p cam-b3lyp/Def2SVP td=(nstates=5)

TDDFT excited states in gaussian

0 1
Mg 0.00000 0.00000 0.00000
C -0.21700 -2.21800 2.80100
C -1.25500 2.44200 2.02600
C -0.24500 1.85000 -2.56400
C 0.14600 -2.82400 -2.03700
N -0.61700 -0.00900 2.12600
C -0.59400 -0.90800 3.10500
C -0.93600 -0.30900 4.50200
C -1.77300 0.96400 4.03200
C -1.15500 1.16800 2.66000
C -3.26300 0.68500 3.86300
C 0.34500 0.11000 5.29900
C 0.12400 0.39700 6.78700
H 1.16800 0.03300 7.73300
N -0.18500 1.96100 -0.15200
C -0.70300 2.80000 0.77700
C -0.62000 4.15600 0.19300
C -0.18700 4.01500 -1.22500
C -0.21400 2.58300 -1.38000
C -0.88700 5.40600 0.97400
C 0.18100 5.01300 -2.27700
O 0.30300 4.69000 -3.50800
C 0.31000 6.41400 -1.83700
N -0.26500 -0.41300 -2.02900
C -0.27900 0.56900 -2.93700
C -0.19600 0.02400 -4.33200
C 0.12400 -1.53300 -4.18000
C 0.08600 -1.63200 -2.63500
C -1.45100 0.20500 -5.19700
C 1.37300 -2.07000 -4.92300
C 2.62600 -1.49000 -4.30600
N 0.15000 -2.14400 0.30300
C 0.17300 -3.13600 -0.68800
C 0.17300 -4.43800 0.00400
C 0.13300 -4.11100 1.35800
C 0.08300 -2.69500 1.50200
C 0.14900 -5.71500 -0.62300
C 0.09600 -4.62900 2.71600
O 0.20800 -5.74700 3.22100
C -0.25500 -3.42800 3.70100
C 0.71700 -3.48200 4.84800
O 1.93100 -3.25500 4.66900
O 0.03800 -3.55600 6.00300
C 0.94300 -3.58300 7.18300
H -1.85900 3.22000 2.49700
H -0.21800 2.45300 -3.47400
H 0.27600 -3.74700 -2.60500
H -1.55400 -0.94900 5.13200
H -1.58500 1.83100 4.66500
H -3.48400 -0.37700 3.96900
H -3.51100 1.02700 2.85800
H -3.85200 1.30100 4.54300
H 0.66900 1.09600 4.96600
H 1.13000 -0.63900 5.18900
H -0.84400 0.02600 7.12500
H 0.06200 1.47700 6.92100
H -1.34400 5.18600 1.93800
H -1.65100 5.96300 0.43200
H 0.00700 6.02000 1.08400
H -0.63500 6.74400 -1.40500
H 0.66500 6.97000 -2.70400
H 1.04800 6.46600 -1.03600
H 0.60800 0.50100 -4.89100
H -0.69200 -2.15600 -4.54700
H -1.26700 0.74000 -6.12900
H -2.20400 0.71400 -4.59600
H -1.96700 -0.72000 -5.45300
H 1.35600 -1.75900 -5.96700
H 1.45200 -3.15700 -4.90200
H 2.71400 -0.52200 -4.79800
H 3.48700 -2.12100 -4.52900
H 2.49500 -1.30300 -3.24000
H 0.86700 -6.33300 -0.08400
H 0.40400 -5.64200 -1.68000
H -0.89100 -5.99900 -0.46300
H -1.28300 -3.58100 4.02800
H 0.69800 -4.47800 7.75500
H 0.83300 -2.61900 7.68000
H 2.00000 -3.75400 6.97600
Mg 13.14139 1.18560 0.98822
C 15.75254 -1.18926 0.33941
C 15.45914 3.64106 0.50521
C 10.98298 3.28313 1.99274
C 11.36303 -1.39518 2.51227
N 15.29521 1.11009 0.49061
C 16.16558 0.15286 0.20690
C 17.53305 0.66294 -0.32169
C 17.50484 2.13494 0.31963
C 15.99319 2.33076 0.41572
C 18.08391 2.19095 1.72351
C 17.58444 0.72006 -1.88889
C 18.98288 0.91198 -2.47989
H 19.30382 0.24569 -3.73907
N 13.05674 3.15427 0.75211
C 14.09223 3.99393 0.54233
C 13.50694 5.34084 0.45619
C 12.06122 5.24669 0.79640
C 11.98034 3.86416 1.22318
C 14.28817 6.54012 0.00361
C 10.94002 6.24048 0.75775
O 9.81384 6.00739 1.32364
C 11.23062 7.53217 0.11856
N 11.51671 1.02986 2.27606
C 10.70903 2.08119 2.50030
C 9.45912 1.66155 3.23652
C 9.48314 0.06252 3.24710
C 10.84752 -0.17460 2.56325
C 9.32590 2.17776 4.66906
C 8.23429 -0.66388 2.67668
C 8.13203 -0.42255 1.18783
N 13.38281 -0.94991 1.21043
C 12.53378 -1.83622 1.90877
C 13.17338 -3.16751 1.87713
C 14.37076 -2.95684 1.17686
C 14.47997 -1.58660 0.81629
C 12.66643 -4.34872 2.48857
C 15.57221 -3.57992 0.66992
O 15.98797 -4.73573 0.59934
C 16.58029 -2.43827 0.21517
C 17.10540 -2.79811 -1.14766
O 16.34351 -2.83146 -2.13001
O 18.44992 -2.83023 -1.10745
C 19.01790 -3.17205 -2.43876
H 16.15148 4.47826 0.59825
H 10.15756 3.94255 2.27084
H 10.82534 -2.27178 2.87989
H 18.39385 0.11510 0.04256
H 17.94220 2.86757 -0.35367
H 18.31146 1.20668 2.10503
H 17.32885 2.66825 2.33434
H 18.95350 2.85399 1.74641
H 17.10765 1.64829 -2.22918
H 17.12759 -0.15090 -2.31708
H 19.77158 0.73372 -1.73886
H 19.10337 1.96342 -2.75188
H 15.36529 6.33344 -0.01897
H 14.17482 7.30646 0.77804
H 13.92997 6.94214 -0.94652
H 12.06302 8.00923 0.63042
H 10.28245 8.07323 0.10869
H 11.55824 7.34739 -0.91059
H 8.57157 1.99622 2.71368
H 9.56981 -0.33693 4.26825
H 8.39808 2.75561 4.84026
H 10.19591 2.77893 4.89754
H 9.36512 1.41163 5.44153
H 7.32302 -0.25559 3.12059
H 8.23300 -1.73246 2.86412
H 7.63763 0.55173 1.12914
H 7.53343 -1.19809 0.71427
H 9.12564 -0.31566 0.73730
H 12.79892 -5.15048 1.77434
H 11.62156 -4.23402 2.76938
H 13.32142 -4.41296 3.36157
H 17.37542 -2.38758 0.96000
H 19.66292 -4.04462 -2.29644
H 19.49784 -2.24535 -2.80567
H 18.33427 -3.53581 -3.19691

