%nproc=24
%mem=175gb
#p cam-b3lyp/Def2SVP td=(nstates=5)

TDDFT excited states in gaussian

0 1
Mg 0.00000 0.00000 0.00000
C -0.21700 -2.21800 2.80100
C -1.25500 2.44200 2.02600
C -0.24500 1.85000 -2.56400
C 0.14600 -2.82400 -2.03700
N -0.61700 -0.00900 2.12600
C -0.59400 -0.90800 3.10500
C -0.93600 -0.30900 4.50200
C -1.77300 0.96400 4.03200
C -1.15500 1.16800 2.66000
C -3.26300 0.68500 3.86300
C 0.34500 0.11000 5.29900
C 0.12400 0.39700 6.78700
H 1.16800 0.03300 7.73300
N -0.18500 1.96100 -0.15200
C -0.70300 2.80000 0.77700
C -0.62000 4.15600 0.19300
C -0.18700 4.01500 -1.22500
C -0.21400 2.58300 -1.38000
C -0.88700 5.40600 0.97400
C 0.18100 5.01300 -2.27700
O 0.30300 4.69000 -3.50800
C 0.31000 6.41400 -1.83700
N -0.26500 -0.41300 -2.02900
C -0.27900 0.56900 -2.93700
C -0.19600 0.02400 -4.33200
C 0.12400 -1.53300 -4.18000
C 0.08600 -1.63200 -2.63500
C -1.45100 0.20500 -5.19700
C 1.37300 -2.07000 -4.92300
C 2.62600 -1.49000 -4.30600
N 0.15000 -2.14400 0.30300
C 0.17300 -3.13600 -0.68800
C 0.17300 -4.43800 0.00400
C 0.13300 -4.11100 1.35800
C 0.08300 -2.69500 1.50200
C 0.14900 -5.71500 -0.62300
C 0.09600 -4.62900 2.71600
O 0.20800 -5.74700 3.22100
C -0.25500 -3.42800 3.70100
C 0.71700 -3.48200 4.84800
O 1.93100 -3.25500 4.66900
O 0.03800 -3.55600 6.00300
C 0.94300 -3.58300 7.18300
H -1.85900 3.22000 2.49700
H -0.21800 2.45300 -3.47400
H 0.27600 -3.74700 -2.60500
H -1.55400 -0.94900 5.13200
H -1.58500 1.83100 4.66500
H -3.48400 -0.37700 3.96900
H -3.51100 1.02700 2.85800
H -3.85200 1.30100 4.54300
H 0.66900 1.09600 4.96600
H 1.13000 -0.63900 5.18900
H -0.84400 0.02600 7.12500
H 0.06200 1.47700 6.92100
H -1.34400 5.18600 1.93800
H -1.65100 5.96300 0.43200
H 0.00700 6.02000 1.08400
H -0.63500 6.74400 -1.40500
H 0.66500 6.97000 -2.70400
H 1.04800 6.46600 -1.03600
H 0.60800 0.50100 -4.89100
H -0.69200 -2.15600 -4.54700
H -1.26700 0.74000 -6.12900
H -2.20400 0.71400 -4.59600
H -1.96700 -0.72000 -5.45300
H 1.35600 -1.75900 -5.96700
H 1.45200 -3.15700 -4.90200
H 2.71400 -0.52200 -4.79800
H 3.48700 -2.12100 -4.52900
H 2.49500 -1.30300 -3.24000
H 0.86700 -6.33300 -0.08400
H 0.40400 -5.64200 -1.68000
H -0.89100 -5.99900 -0.46300
H -1.28300 -3.58100 4.02800
H 0.69800 -4.47800 7.75500
H 0.83300 -2.61900 7.68000
H 2.00000 -3.75400 6.97600
Mg 8.94129 0.80091 0.68580
C 9.11084 -2.68587 -0.14645
C 7.90702 -0.14480 3.79555
C 8.34997 3.85522 1.30947
C 8.87157 1.47125 -2.73348
N 8.59288 -1.18832 1.58793
C 8.74968 -2.44354 1.19529
C 8.58393 -3.49605 2.32415
C 7.66569 -2.63584 3.32201
C 8.10214 -1.23227 2.90704
C 6.17851 -2.77574 3.04262
C 9.95227 -3.87951 2.98945
C 9.90747 -5.12136 3.88251
H 11.07342 -6.00010 3.91172
N 8.70907 1.73578 2.42092
C 8.30375 1.19469 3.58892
C 8.27618 2.30192 4.55715
C 8.53947 3.57109 3.82598
C 8.52205 3.09527 2.45726
C 8.09699 2.08869 6.03222
C 8.75663 4.98204 4.28233
O 8.73122 5.96652 3.46198
C 8.90689 5.18691 5.73041
N 8.43945 2.41551 -0.52398
C 8.28948 3.64721 -0.00597
C 8.20342 4.69010 -1.09472
C 8.57094 3.92658 -2.45102
C 8.72557 2.49207 -1.89996
C 6.84793 5.37921 -1.25017
C 9.72702 4.52020 -3.30176
C 11.03872 4.37202 -2.56497
N 9.16713 -0.34877 -1.12949
C 9.07654 0.12565 -2.45645
C 9.18521 -1.04815 -3.34684
C 9.30936 -2.13525 -2.46860
C 9.25985 -1.67385 -1.12541
C 9.11461 -1.02341 -4.76829
C 9.46037 -3.56934 -2.37229
O 9.64585 -4.47943 -3.17917
C 9.21155 -4.00349 -0.86365
C 10.31927 -4.93778 -0.46045
O 11.49291 -4.53282 -0.38856
O 9.78441 -6.09057 -0.01843
C 10.84344 -7.04567 0.40353
H 7.36082 -0.32347 4.72216
H 8.25313 4.93192 1.46699
H 8.95706 1.60725 -3.81370
H 8.06608 -4.40081 2.02918
H 7.92613 -2.82479 4.36020
H 5.98920 -3.33962 2.14133
H 5.80158 -1.76621 2.94351
H 5.67027 -3.20324 3.91168
H 10.21217 -3.11945 3.73745
H 10.71761 -3.99582 2.24691
H 8.99062 -5.70425 3.73228
H 9.85146 -4.79753 4.92463
H 7.76117 1.06802 6.25324
H 7.26215 2.72367 6.34800
H 8.98459 2.35972 6.60788
H 8.02031 4.81871 6.24115
H 9.14240 6.24589 5.85285
H 9.74837 4.58072 6.08406
H 8.92464 5.48124 -0.93029
H 7.72152 3.90503 -3.14950
H 6.90496 6.48028 -1.15819
H 6.17062 4.97054 -0.51208
H 6.32731 5.16908 -2.18291
H 9.57488 5.59182 -3.45222
H 9.81785 4.06690 -4.28323
H 11.04231 5.23438 -1.89161
H 11.87501 4.41054 -3.26008
H 11.04138 3.46878 -1.94385
H 9.89696 -1.67716 -5.13030
H 9.22955 -0.01278 -5.15454
H 8.10260 -1.40822 -4.92004
H 8.23360 -4.48424 -0.81814
H 10.68375 -7.96958 -0.16088
H 10.76697 -7.10887 1.50531
H 11.86686 -6.80913 0.13686

