%nproc=24
%mem=175gb
#p cam-b3lyp/Def2SVP td=(nstates=5)

TDDFT excited states in gaussian

0 1
Mg 8.93764 0.80716 0.66905
C 11.60125 -1.54637 0.17398
C 11.26360 3.28089 0.34473
C 6.70550 2.88456 1.54622
C 7.08549 -1.79376 2.06563
N 11.11894 0.74897 0.30742
C 12.01222 -0.20079 0.07429
C 13.40652 0.32140 -0.36480
C 13.32760 1.78973 0.28069
C 11.81154 1.97475 0.28254
C 13.81693 1.84217 1.71845
C 13.55585 0.38725 -1.92537
C 14.98725 0.59184 -2.42637
H 15.39138 -0.06552 -3.66614
N 8.85397 2.77644 0.43775
C 9.89458 3.62424 0.29759
C 9.30627 4.96758 0.18145
C 7.84274 4.86178 0.42966
C 7.74507 3.47647 0.84372
C 10.10583 6.17455 -0.21524
C 6.71913 5.84811 0.32550
O 5.56132 5.60435 0.81834
C 7.04010 7.14515 -0.28782
N 7.23643 0.63350 1.85145
C 6.40878 1.67809 2.02965
C 5.11812 1.24603 2.68379
C 5.15282 -0.35284 2.68801
C 6.55912 -0.57701 2.09011
C 4.89150 1.75365 4.10764
C 3.94747 -1.08466 2.03667
C 3.93722 -0.83607 0.54554
N 9.17984 -1.32781 0.89551
C 8.29496 -2.22359 1.53475
C 8.94475 -3.55032 1.53684
C 10.18223 -3.32777 0.91425
C 10.30410 -1.95490 0.56799
C 8.40882 -4.73820 2.10941
C 11.41755 -3.93994 0.48077
O 11.84515 -5.09250 0.43078
C 12.44404 -2.78904 0.09588
C 13.05627 -3.13801 -1.23299
O 12.35785 -3.17129 -2.26144
O 14.39580 -3.16120 -1.10852
C 15.04871 -3.49203 -2.40316
H 11.94274 4.12227 0.48520
H 5.85957 3.53685 1.77512
H 6.53204 -2.67595 2.39443
H 14.24662 -0.22251 0.05013
H 13.80115 2.52891 -0.36019
H 14.02707 0.85744 2.10868
H 13.02161 2.31105 2.28295
H 14.67862 2.51098 1.79921
H 13.09476 1.31402 -2.29040
H 13.13301 -0.48449 -2.38570
H 15.72908 0.41498 -1.63811
H 15.11708 1.64551 -2.68508
H 11.18368 5.97533 -0.17109
H 9.93859 6.93595 0.55428
H 9.80515 6.57919 -1.18402
H 7.83528 7.62512 0.27768
H 6.09059 7.67979 -0.35460
H 7.43302 6.96811 -1.29523
H 4.26281 1.57744 2.10785
H 5.17802 -0.75714 3.71062
H 3.95067 2.32425 4.22303
H 5.74114 2.35949 4.39330
H 4.88759 0.98368 4.87728
H 3.00724 -0.68496 2.42443
H 3.94203 -2.15421 2.21841
H 3.44056 0.13512 0.46067
H 3.37509 -1.61312 0.03149
H 4.95638 -0.72002 0.15888
H 8.59163 -5.53521 1.40099
H 7.34758 -4.63212 2.32455
H 9.00813 -4.80265 3.02152
H 13.19044 -2.73693 0.88946
H 15.68972 -4.36093 -2.22487
H 15.54413 -2.56013 -2.73463
H 14.41666 -3.85636 -3.20456

