%nproc=24
%mem=175gb
#p cam-b3lyp/Def2SVP td=(nstates=5)

TDDFT excited states in gaussian

0 1
Mg 10.51764 0.95117 0.80494
C 10.45866 -1.25611 3.63399
C 9.40724 3.41153 2.89018
C 10.12802 2.79909 -1.74472
C 10.50971 -1.87941 -1.22816
N 10.03300 0.95470 2.96304
C 10.10778 0.07325 3.94884
C 9.86668 0.66734 5.36252
C 9.00285 1.95311 4.93889
C 9.53388 2.14773 3.52016
C 7.51106 1.67540 4.85660
C 11.20311 1.08175 6.07261
C 11.07125 1.38001 7.56774
H 12.17591 1.01507 8.45036
N 10.33960 2.92263 0.66282
C 9.89334 3.77001 1.61365
C 9.93479 5.11064 1.00937
C 10.28568 4.96590 -0.42961
C 10.24339 3.52393 -0.56750
C 9.73447 6.36810 1.80441
C 10.59408 5.96124 -1.50682
O 10.63839 5.62398 -2.74259
C 10.75047 7.35994 -1.08177
N 10.13049 0.53209 -1.19426
C 10.06034 1.51766 -2.10621
C 10.04935 0.96190 -3.51027
C 10.37192 -0.59704 -3.35780
C 10.42790 -0.69440 -1.81741
C 8.74357 1.13775 -4.28513
C 11.56919 -1.15145 -4.17746
C 12.86443 -0.57310 -3.65474
N 10.67540 -1.18218 1.10829
C 10.62321 -2.19031 0.12086
C 10.65785 -3.48964 0.82298
C 10.70494 -3.14458 2.18210
C 10.67961 -1.73026 2.31828
C 10.59612 -4.77072 0.20561
C 10.75960 -3.65533 3.53297
O 10.88804 -4.77109 4.03528
C 10.47492 -2.45736 4.53807
C 11.51592 -2.50382 5.62282
O 12.71356 -2.29764 5.35873
O 10.90326 -2.56752 6.81904
C 11.89420 -2.60441 7.92742
H 8.84575 4.19294 3.40303
H 10.10235 3.39123 -2.66243
H 10.60943 -2.80756 -1.79496
H 9.29117 0.03574 6.02858
H 9.24495 2.81306 5.55796
H 7.28907 0.62605 4.98203
H 7.20271 2.01273 3.87569
H 6.97115 2.30036 5.57372
H 11.50935 2.07140 5.70989
H 11.96268 0.34035 5.91765
H 10.11835 1.02283 7.97683
H 11.03176 2.46357 7.70327
H 9.33031 6.15355 2.80141
H 8.94224 6.93807 1.30705
H 10.63528 6.98359 1.85321
H 9.83880 7.69233 -0.59102
H 11.05539 7.90511 -1.97714
H 11.54793 7.41068 -0.33204
H 10.82086 1.42292 -4.11471
H 9.52644 -1.22164 -3.68163
H 8.87338 1.67682 -5.24253
H 8.03689 1.65531 -3.65010
H 8.21475 0.21421 -4.51453
H 11.48953 -0.84027 -5.22196
H 11.63450 -2.23433 -4.16813
H 12.92212 0.39703 -4.15735
H 13.70487 -1.20878 -3.92605
H 12.80383 -0.38284 -2.57688
H 11.33496 -5.38931 0.69751
H 10.78005 -4.70551 -0.86476
H 9.56149 -5.04492 0.42836
H 9.46690 -2.59272 4.93196
H 11.67612 -3.49736 8.52137
H 11.80822 -1.62666 8.43768
H 12.93241 -2.77258 7.66611

