%nproc=24
%mem=175gb
#p cam-b3lyp/Def2SVP td=(nstates=5)

TDDFT excited states in gaussian

0 1
Mg 31.53002 2.84727 2.40117
C 33.67515 2.37912 5.23989
C 28.89220 2.70359 4.55891
C 29.60024 2.80615 -0.11710
C 34.19027 1.82202 0.39676
N 31.42497 2.57405 4.59356
C 32.30798 2.46816 5.57510
C 31.69687 2.53782 7.00032
C 30.20458 2.06233 6.64559
C 30.14868 2.50251 5.18415
C 30.02518 0.55419 6.69735
C 31.71191 3.99316 7.58664
C 31.41725 4.08572 9.08543
H 32.11091 5.10378 9.86957
N 29.59221 3.25215 2.26141
C 28.66931 3.16209 3.24194
C 27.38989 3.54805 2.62690
C 27.60410 3.71426 1.16361
C 28.96552 3.23320 1.04018
C 26.14546 3.80035 3.42762
C 26.72434 4.21047 0.05636
O 27.03531 4.04547 -1.17607
C 25.44374 4.81196 0.45605
N 31.77607 2.18172 0.44699
C 30.79646 2.32937 -0.46213
C 31.29633 2.03225 -1.85578
C 32.88341 1.88840 -1.72139
C 33.02311 2.04581 -0.19132
C 30.72560 0.77604 -2.51348
C 33.75215 2.79102 -2.63968
C 33.59479 4.23977 -2.23750
N 33.61951 2.38890 2.70446
C 34.54717 1.95405 1.73264
C 35.81167 1.66117 2.43811
C 35.52281 1.92606 3.78528
C 34.16769 2.33445 3.91318
C 37.00432 1.16804 1.83767
C 36.05307 1.94285 5.12962
O 37.16626 1.77649 5.62649
C 34.84451 2.11539 6.14745
C 35.21915 3.18512 7.13631
O 35.37273 4.36237 6.76601
O 35.12147 2.68704 8.38240
C 35.47258 3.71406 9.39914
H 27.98951 2.44648 5.11382
H 29.00934 2.87856 -1.03311
H 35.09490 1.59176 -0.17007
H 32.14202 1.86030 7.71906
H 29.46757 2.60183 7.23475
H 30.96355 0.04183 6.84931
H 29.59240 0.27657 5.74516
H 29.28226 0.28873 7.45493
H 30.85092 4.54737 7.19131
H 32.64222 4.48143 7.37043
H 31.48334 3.10881 9.57961
H 30.37371 4.38221 9.21626
H 26.24980 3.43842 4.45792
H 25.35636 3.17364 2.99818
H 25.82626 4.84416 3.39231
H 24.86533 4.08642 1.02306
H 24.99628 5.18667 -0.46658
H 25.64674 5.65009 1.13203
H 31.07343 2.85070 -2.52925
H 33.22236 0.87072 -1.96485
H 30.23076 0.97706 -3.48240
H 30.03408 0.31295 -1.82219
H 31.44580 -0.02132 -2.68875
H 33.41098 2.71757 -3.67523
H 34.80556 2.53181 -2.62850
H 32.67589 4.53976 -2.75008
H 34.44590 4.82633 -2.57750
H 33.41623 4.33191 -1.15988
H 37.82388 1.72904 2.26674
H 36.97574 1.26981 0.75480
H 36.96327 0.12199 2.15287
H 34.68216 1.15073 6.62979
H 36.27195 3.29242 10.01632
H 34.52358 3.96726 9.90808
H 35.93627 4.62860 9.04834

