%nproc=24
%mem=175gb
#p cam-b3lyp/Def2SVP td=(nstates=5)

TDDFT excited states in gaussian

0 1
Mg 15.77328 1.42294 1.20479
C 15.08404 -0.75832 3.96996
C 14.95708 4.02818 3.24958
C 15.93497 3.33021 -1.32574
C 15.42227 -1.34356 -0.88542
N 15.12107 1.49807 3.31696
C 14.95407 0.61024 4.28557
C 14.70847 1.22749 5.68851
C 14.12873 2.65198 5.22635
C 14.80124 2.75765 3.85915
C 12.62325 2.65054 5.01928
C 16.03460 1.38679 6.51192
C 15.83597 1.69268 7.99810
H 16.78009 1.12643 8.95751
N 15.96624 3.39496 1.09317
C 15.60341 4.30207 2.02419
C 15.93574 5.61740 1.45533
C 16.37211 5.42226 0.04599
C 16.08183 4.01306 -0.12711
C 15.90079 6.88426 2.25987
C 16.94277 6.35316 -0.98064
O 17.02718 6.02286 -2.21620
C 17.31341 7.69690 -0.51324
N 15.48295 1.09636 -0.82779
C 15.66719 2.08518 -1.72010
C 15.67184 1.55135 -3.13268
C 15.69412 -0.04136 -2.98998
C 15.60449 -0.15897 -1.45261
C 14.48759 1.96738 -4.00496
C 16.83510 -0.79782 -3.72389
C 18.16589 -0.46840 -3.08681
N 15.51795 -0.70581 1.47185
C 15.36625 -1.68015 0.46104
C 15.10788 -2.96945 1.13439
C 15.10430 -2.64902 2.50033
C 15.32347 -1.25471 2.66573
C 14.86708 -4.21326 0.48550
C 14.95439 -3.17144 3.83947
O 14.83754 -4.29575 4.32528
C 14.80871 -1.94936 4.84530
C 15.73125 -2.19241 6.00821
O 16.96406 -2.20525 5.84506
O 15.02069 -2.15284 7.15010
C 15.89394 -2.37756 8.33279
H 14.50549 4.89468 3.73345
H 16.09228 3.92411 -2.22907
H 15.39924 -2.27005 -1.46313
H 13.97554 0.70592 6.29229
H 14.47019 3.44890 5.88186
H 12.20599 1.65807 5.10307
H 12.46274 3.04572 4.02473
H 12.14776 3.35773 5.70494
H 16.54323 2.30706 6.19703
H 16.65806 0.52093 6.40139
H 14.80385 1.51147 8.32188
H 15.98163 2.76432 8.15432
H 15.38379 6.73914 3.21645
H 15.26814 7.59243 1.71388
H 16.89075 7.32545 2.39406
H 16.43940 8.18565 -0.08934
H 17.78444 8.18439 -1.36903
H 18.04240 7.59622 0.29859
H 16.56101 1.86911 -3.66326
H 14.77942 -0.49949 -3.39406
H 14.79099 2.48115 -4.93666
H 13.83601 2.59988 -3.41680
H 13.82153 1.15706 -4.29641
H 16.89924 -0.46942 -4.76418
H 16.70293 -1.87459 -3.73366
H 18.43890 0.47889 -3.56135
H 18.89727 -1.24411 -3.30449
H 18.05200 -0.27849 -2.01321
H 15.43908 -4.95951 1.02070
H 15.14733 -4.17443 -0.56509
H 13.78518 -4.29661 0.61892
H 13.76384 -1.90233 5.15450
H 15.47012 -3.22051 8.88732
H 15.94406 -1.40437 8.85637
H 16.90271 -2.72956 8.15132

