%nproc=24
%mem=175gb
#p cam-b3lyp/Def2SVP td=(nstates=5)

TDDFT excited states in gaussian

0 1
Mg 0.00000 0.00000 0.00000
C -0.21700 -2.21800 2.80100
C -1.25500 2.44200 2.02600
C -0.24500 1.85000 -2.56400
C 0.14600 -2.82400 -2.03700
N -0.61700 -0.00900 2.12600
C -0.59400 -0.90800 3.10500
C -0.93600 -0.30900 4.50200
C -1.77300 0.96400 4.03200
C -1.15500 1.16800 2.66000
C -3.26300 0.68500 3.86300
C 0.34500 0.11000 5.29900
C 0.12400 0.39700 6.78700
H 1.16800 0.03300 7.73300
N -0.18500 1.96100 -0.15200
C -0.70300 2.80000 0.77700
C -0.62000 4.15600 0.19300
C -0.18700 4.01500 -1.22500
C -0.21400 2.58300 -1.38000
C -0.88700 5.40600 0.97400
C 0.18100 5.01300 -2.27700
O 0.30300 4.69000 -3.50800
C 0.31000 6.41400 -1.83700
N -0.26500 -0.41300 -2.02900
C -0.27900 0.56900 -2.93700
C -0.19600 0.02400 -4.33200
C 0.12400 -1.53300 -4.18000
C 0.08600 -1.63200 -2.63500
C -1.45100 0.20500 -5.19700
C 1.37300 -2.07000 -4.92300
C 2.62600 -1.49000 -4.30600
N 0.15000 -2.14400 0.30300
C 0.17300 -3.13600 -0.68800
C 0.17300 -4.43800 0.00400
C 0.13300 -4.11100 1.35800
C 0.08300 -2.69500 1.50200
C 0.14900 -5.71500 -0.62300
C 0.09600 -4.62900 2.71600
O 0.20800 -5.74700 3.22100
C -0.25500 -3.42800 3.70100
C 0.71700 -3.48200 4.84800
O 1.93100 -3.25500 4.66900
O 0.03800 -3.55600 6.00300
C 0.94300 -3.58300 7.18300
H -1.85900 3.22000 2.49700
H -0.21800 2.45300 -3.47400
H 0.27600 -3.74700 -2.60500
H -1.55400 -0.94900 5.13200
H -1.58500 1.83100 4.66500
H -3.48400 -0.37700 3.96900
H -3.51100 1.02700 2.85800
H -3.85200 1.30100 4.54300
H 0.66900 1.09600 4.96600
H 1.13000 -0.63900 5.18900
H -0.84400 0.02600 7.12500
H 0.06200 1.47700 6.92100
H -1.34400 5.18600 1.93800
H -1.65100 5.96300 0.43200
H 0.00700 6.02000 1.08400
H -0.63500 6.74400 -1.40500
H 0.66500 6.97000 -2.70400
H 1.04800 6.46600 -1.03600
H 0.60800 0.50100 -4.89100
H -0.69200 -2.15600 -4.54700
H -1.26700 0.74000 -6.12900
H -2.20400 0.71400 -4.59600
H -1.96700 -0.72000 -5.45300
H 1.35600 -1.75900 -5.96700
H 1.45200 -3.15700 -4.90200
H 2.71400 -0.52200 -4.79800
H 3.48700 -2.12100 -4.52900
H 2.49500 -1.30300 -3.24000
H 0.86700 -6.33300 -0.08400
H 0.40400 -5.64200 -1.68000
H -0.89100 -5.99900 -0.46300
H -1.28300 -3.58100 4.02800
H 0.69800 -4.47800 7.75500
H 0.83300 -2.61900 7.68000
H 2.00000 -3.75400 6.97600
Mg 10.51785 0.94980 0.80557
C 9.82861 -1.23145 3.57074
C 9.70166 3.55504 2.85036
C 10.67954 2.85707 -1.72496
C 10.16685 -1.81670 -1.28464
N 9.86565 1.02493 2.91774
C 9.69865 0.13710 3.88635
C 9.45305 0.75435 5.28929
C 8.87330 2.17884 4.82713
C 9.54581 2.28452 3.45993
C 7.36783 2.17741 4.62006
C 10.77918 0.91366 6.11270
C 10.58055 1.21955 7.59888
H 11.52467 0.65330 8.55829
N 10.71082 2.92183 0.69395
C 10.34798 3.82893 1.62496
C 10.68032 5.14427 1.05610
C 11.11669 4.94913 -0.35323
C 10.82641 3.53992 -0.52634
C 10.64537 6.41112 1.86065
C 11.68734 5.88003 -1.37986
O 11.77175 5.54973 -2.61542
C 12.05799 7.22377 -0.91246
N 10.22752 0.62323 -1.22701
C 10.41176 1.61205 -2.11932
C 10.41641 1.07821 -3.53190
C 10.43869 -0.51450 -3.38920
C 10.34906 -0.63210 -1.85183
C 9.23217 1.49425 -4.40418
C 11.57967 -1.27095 -4.12311
C 12.91046 -0.94153 -3.48603
N 10.26252 -1.17894 1.07263
C 10.11082 -2.15328 0.06182
C 9.85245 -3.44258 0.73516
C 9.84888 -3.12215 2.10111
C 10.06804 -1.72784 2.26651
C 9.61165 -4.68640 0.08628
C 9.69896 -3.64458 3.44025
O 9.58211 -4.76889 3.92606
C 9.55328 -2.42250 4.44608
C 10.47582 -2.66554 5.60899
O 11.70863 -2.67838 5.44584
O 9.76526 -2.62597 6.75088
C 10.63852 -2.85069 7.93357
H 9.25007 4.42154 3.33423
H 10.83685 3.45098 -2.62829
H 10.14381 -2.74319 -1.86236
H 8.72011 0.23278 5.89307
H 9.21476 2.97576 5.48264
H 6.95057 1.18493 4.70385
H 7.20731 2.57258 3.62551
H 6.89233 2.88459 5.30572
H 11.28780 1.83393 5.79781
H 11.40263 0.04780 6.00217
H 9.54843 1.03833 7.92266
H 10.72621 2.29118 7.75509
H 10.12836 6.26600 2.81723
H 10.01271 7.11930 1.31466
H 11.63532 6.85232 1.99484
H 11.18398 7.71252 -0.48856
H 12.52901 7.71126 -1.76825
H 12.78697 7.12309 -0.10063
H 11.30558 1.39597 -4.06248
H 9.52399 -0.97262 -3.79328
H 9.53556 2.00802 -5.33588
H 8.58059 2.12674 -3.81603
H 8.56610 0.68393 -4.69563
H 11.64382 -0.94255 -5.16340
H 11.44751 -2.34772 -4.13289
H 13.18348 0.00576 -3.96057
H 13.64185 -1.71725 -3.70371
H 12.79657 -0.75162 -2.41243
H 10.18365 -5.43264 0.62148
H 9.89190 -4.64756 -0.96431
H 8.52975 -4.76975 0.21970
H 8.50841 -2.37546 4.75528
H 10.21469 -3.69364 8.48809
H 10.68864 -1.87750 8.45715
H 11.64729 -3.20269 7.75210

