%nproc=24
%mem=175gb
#p cam-b3lyp/Def2SVP td=(nstates=5)

TDDFT excited states in gaussian

0 1
Mg 31.52827 2.84304 2.40404
C 29.24516 0.24758 3.36843
C 28.83040 4.91392 2.14417
C 33.44782 5.01990 1.12183
C 33.83142 0.34169 1.63956
N 29.36790 2.50783 2.73973
C 28.62407 1.49732 3.16392
C 27.14529 1.86634 3.45821
C 27.02487 3.15425 2.50655
C 28.49146 3.58005 2.48477
C 26.60467 2.81565 1.08595
C 26.91093 2.24073 4.96384
C 25.44227 2.31119 5.38790
H 25.08562 1.87862 6.73629
N 31.29093 4.80252 2.19742
C 30.12473 5.47865 2.13332
C 30.48891 6.89328 1.95902
C 31.96135 6.97753 1.76023
C 32.29508 5.57070 1.66255
C 29.49161 8.00981 2.06940
C 32.91008 8.13343 1.66014
O 34.11459 7.98224 1.24891
C 32.36011 9.46156 1.96853
N 33.29175 2.70005 1.31224
C 33.95328 3.80293 0.91987
C 35.32629 3.45751 0.39457
C 35.54273 1.91150 0.74184
C 34.16124 1.59407 1.35512
C 35.54034 3.67730 -1.10285
C 36.81434 1.54411 1.55469
C 36.71217 2.10564 2.95456
N 31.63495 0.69914 2.64968
C 32.67960 -0.15596 2.23542
C 32.24656 -1.54012 2.51647
C 30.96040 -1.39451 3.05783
C 30.60809 -0.01820 3.09177
C 32.98947 -2.71922 2.22674
C 29.81642 -2.09288 3.59845
O 29.57273 -3.26182 3.89500
C 28.60463 -1.07000 3.70655
C 27.99003 -1.22055 5.07114
O 28.63360 -0.91726 6.09115
O 26.67843 -1.48881 4.93651
C 26.02255 -1.63590 6.26316
H 28.03558 5.58271 1.81270
H 34.19134 5.73716 0.76659
H 34.53173 -0.48782 1.52057
H 26.42221 1.11600 3.16169
H 26.41043 3.92621 2.96251
H 26.57084 1.74926 0.91915
H 27.34351 3.27589 0.44303
H 25.65388 3.30124 0.84820
H 27.20261 3.28695 5.12224
H 27.44195 1.56953 5.61046
H 24.77697 1.85010 4.64782
H 25.13640 3.36005 5.40658
H 28.46177 7.63214 2.05542
H 29.57515 8.60486 1.15354
H 29.67717 8.65684 2.92939
H 31.52835 9.67202 1.30044
H 33.20970 10.14604 1.92900
H 31.95071 9.44334 2.98473
H 36.08975 4.04035 0.89510
H 35.63151 1.29830 -0.16697
H 36.38469 4.35583 -1.32810
H 34.62137 4.06020 -1.52643
H 35.70267 2.77118 -1.68405
H 37.69827 1.99945 1.10138
H 36.99619 0.47615 1.61288
H 37.04577 3.14023 2.83040
H 37.36312 1.55995 3.63465
H 35.66965 2.13372 3.29222
H 32.89916 -3.36425 3.09062
H 34.03027 -2.48968 2.00806
H 32.45325 -3.07539 1.34306
H 27.89924 -1.31252 2.91082
H 25.53512 -2.61571 6.27171
H 25.37156 -0.74846 6.37461
H 26.66367 -1.71102 7.13366

