%nproc=24
%mem=175gb
#p cam-b3lyp/Def2SVP td=(nstates=5)

TDDFT excited states in gaussian

0 1
Mg 0.00000 0.00000 0.00000
C -0.21700 -2.21800 2.80100
C -1.25500 2.44200 2.02600
C -0.24500 1.85000 -2.56400
C 0.14600 -2.82400 -2.03700
N -0.61700 -0.00900 2.12600
C -0.59400 -0.90800 3.10500
C -0.93600 -0.30900 4.50200
C -1.77300 0.96400 4.03200
C -1.15500 1.16800 2.66000
C -3.26300 0.68500 3.86300
C 0.34500 0.11000 5.29900
C 0.12400 0.39700 6.78700
H 1.16800 0.03300 7.73300
N -0.18500 1.96100 -0.15200
C -0.70300 2.80000 0.77700
C -0.62000 4.15600 0.19300
C -0.18700 4.01500 -1.22500
C -0.21400 2.58300 -1.38000
C -0.88700 5.40600 0.97400
C 0.18100 5.01300 -2.27700
O 0.30300 4.69000 -3.50800
C 0.31000 6.41400 -1.83700
N -0.26500 -0.41300 -2.02900
C -0.27900 0.56900 -2.93700
C -0.19600 0.02400 -4.33200
C 0.12400 -1.53300 -4.18000
C 0.08600 -1.63200 -2.63500
C -1.45100 0.20500 -5.19700
C 1.37300 -2.07000 -4.92300
C 2.62600 -1.49000 -4.30600
N 0.15000 -2.14400 0.30300
C 0.17300 -3.13600 -0.68800
C 0.17300 -4.43800 0.00400
C 0.13300 -4.11100 1.35800
C 0.08300 -2.69500 1.50200
C 0.14900 -5.71500 -0.62300
C 0.09600 -4.62900 2.71600
O 0.20800 -5.74700 3.22100
C -0.25500 -3.42800 3.70100
C 0.71700 -3.48200 4.84800
O 1.93100 -3.25500 4.66900
O 0.03800 -3.55600 6.00300
C 0.94300 -3.58300 7.18300
H -1.85900 3.22000 2.49700
H -0.21800 2.45300 -3.47400
H 0.27600 -3.74700 -2.60500
H -1.55400 -0.94900 5.13200
H -1.58500 1.83100 4.66500
H -3.48400 -0.37700 3.96900
H -3.51100 1.02700 2.85800
H -3.85200 1.30100 4.54300
H 0.66900 1.09600 4.96600
H 1.13000 -0.63900 5.18900
H -0.84400 0.02600 7.12500
H 0.06200 1.47700 6.92100
H -1.34400 5.18600 1.93800
H -1.65100 5.96300 0.43200
H 0.00700 6.02000 1.08400
H -0.63500 6.74400 -1.40500
H 0.66500 6.97000 -2.70400
H 1.04800 6.46600 -1.03600
H 0.60800 0.50100 -4.89100
H -0.69200 -2.15600 -4.54700
H -1.26700 0.74000 -6.12900
H -2.20400 0.71400 -4.59600
H -1.96700 -0.72000 -5.45300
H 1.35600 -1.75900 -5.96700
H 1.45200 -3.15700 -4.90200
H 2.71400 -0.52200 -4.79800
H 3.48700 -2.12100 -4.52900
H 2.49500 -1.30300 -3.24000
H 0.86700 -6.33300 -0.08400
H 0.40400 -5.64200 -1.68000
H -0.89100 -5.99900 -0.46300
H -1.28300 -3.58100 4.02800
H 0.69800 -4.47800 7.75500
H 0.83300 -2.61900 7.68000
H 2.00000 -3.75400 6.97600
Mg 7.88751 0.70401 0.60664
C 5.20945 0.66286 2.99523
C 9.78549 2.24567 2.98477
C 10.11304 1.16160 -1.60810
C 5.49220 0.22607 -1.87928
N 7.44309 1.32077 2.68374
C 6.41096 1.19788 3.50469
C 6.70649 1.60096 4.97429
C 7.94208 2.59160 4.70811
C 8.45057 2.00068 3.39474
C 7.51745 4.02820 4.45278
C 7.13273 0.37513 5.85615
C 7.13679 0.63790 7.36369
H 6.74420 -0.44591 8.26018
N 9.81897 1.12004 0.79359
C 10.42307 1.72891 1.83552
C 11.84732 1.81882 1.47831
C 12.00770 1.36215 0.07103
C 10.61958 1.21333 -0.31764
C 12.90811 2.22610 2.45926
C 13.21097 1.11428 -0.78740
O 13.11169 0.94967 -2.05463
C 14.51739 1.16284 -0.11479
N 7.79869 0.90792 -1.46046
C 8.91960 1.04404 -2.19051
C 8.63131 0.89596 -3.66541
C 7.11721 0.38956 -3.75849
C 6.74780 0.41930 -2.25915
C 8.79687 2.16184 -4.50597
C 6.86014 -0.91753 -4.55730
C 7.47599 -2.09376 -3.83439
N 5.76627 0.29783 0.54813
C 4.95556 0.15982 -0.59982
C 3.56242 0.00598 -0.13302
C 3.65716 0.08889 1.26435
C 5.01096 0.30104 1.64081
C 2.41661 -0.13361 -0.96594
C 2.91834 0.05579 2.50602
O 1.75149 -0.18037 2.81652
C 3.87323 0.55237 3.67563
C 3.74772 -0.41544 4.82022
O 4.13238 -1.59178 4.69835
O 3.39841 0.25872 5.93102
C 3.27229 -0.65683 7.09621
H 10.39195 2.93259 3.57574
H 10.85571 1.20369 -2.40818
H 4.70013 -0.02563 -2.58776
H 5.90327 2.13316 5.46966
H 8.69658 2.49959 5.48504
H 6.44458 4.12348 4.37526
H 7.99084 4.31397 3.52257
H 7.93631 4.68693 5.21892
H 8.20003 0.17389 5.69763
H 6.52251 -0.48018 5.64007
H 6.60584 1.56206 7.62245
H 8.16602 0.82229 7.68103
H 12.47130 2.66222 3.36612
H 13.46604 3.05086 2.00280
H 13.60207 1.41506 2.69013
H 14.64976 2.13837 0.34704
H 15.24743 0.87312 -0.87306
H 14.52036 0.42720 0.69727
H 9.27880 0.15212 -4.11324
H 6.47070 1.12728 -4.25612
H 9.51249 2.04079 -5.34102
H 9.10696 2.96693 -3.85313
H 7.87690 2.55432 -4.93588
H 7.34539 -0.86548 -5.53504
H 5.80808 -1.11824 -4.73019
H 8.52166 -2.06025 -4.15463
H 6.99936 -3.02316 -4.13947
H 7.45862 -1.94157 -2.74895
H 1.80616 -0.91199 -0.52779
H 2.69607 -0.37519 -1.98933
H 1.99143 0.87015 -0.88259
H 3.55549 1.55814 3.95321
H 2.26727 -0.51603 7.50584
H 4.12466 -0.41606 7.75897
H 3.27281 -1.72240 6.89870

