%nproc=24
%mem=175gb
#p cam-b3lyp/Def2SVP td=(nstates=5)

TDDFT excited states in gaussian

0 1
Mg 0.00000 0.00000 0.00000
C -0.21700 -2.21800 2.80100
C -1.25500 2.44200 2.02600
C -0.24500 1.85000 -2.56400
C 0.14600 -2.82400 -2.03700
N -0.61700 -0.00900 2.12600
C -0.59400 -0.90800 3.10500
C -0.93600 -0.30900 4.50200
C -1.77300 0.96400 4.03200
C -1.15500 1.16800 2.66000
C -3.26300 0.68500 3.86300
C 0.34500 0.11000 5.29900
C 0.12400 0.39700 6.78700
H 1.16800 0.03300 7.73300
N -0.18500 1.96100 -0.15200
C -0.70300 2.80000 0.77700
C -0.62000 4.15600 0.19300
C -0.18700 4.01500 -1.22500
C -0.21400 2.58300 -1.38000
C -0.88700 5.40600 0.97400
C 0.18100 5.01300 -2.27700
O 0.30300 4.69000 -3.50800
C 0.31000 6.41400 -1.83700
N -0.26500 -0.41300 -2.02900
C -0.27900 0.56900 -2.93700
C -0.19600 0.02400 -4.33200
C 0.12400 -1.53300 -4.18000
C 0.08600 -1.63200 -2.63500
C -1.45100 0.20500 -5.19700
C 1.37300 -2.07000 -4.92300
C 2.62600 -1.49000 -4.30600
N 0.15000 -2.14400 0.30300
C 0.17300 -3.13600 -0.68800
C 0.17300 -4.43800 0.00400
C 0.13300 -4.11100 1.35800
C 0.08300 -2.69500 1.50200
C 0.14900 -5.71500 -0.62300
C 0.09600 -4.62900 2.71600
O 0.20800 -5.74700 3.22100
C -0.25500 -3.42800 3.70100
C 0.71700 -3.48200 4.84800
O 1.93100 -3.25500 4.66900
O 0.03800 -3.55600 6.00300
C 0.94300 -3.58300 7.18300
H -1.85900 3.22000 2.49700
H -0.21800 2.45300 -3.47400
H 0.27600 -3.74700 -2.60500
H -1.55400 -0.94900 5.13200
H -1.58500 1.83100 4.66500
H -3.48400 -0.37700 3.96900
H -3.51100 1.02700 2.85800
H -3.85200 1.30100 4.54300
H 0.66900 1.09600 4.96600
H 1.13000 -0.63900 5.18900
H -0.84400 0.02600 7.12500
H 0.06200 1.47700 6.92100
H -1.34400 5.18600 1.93800
H -1.65100 5.96300 0.43200
H 0.00700 6.02000 1.08400
H -0.63500 6.74400 -1.40500
H 0.66500 6.97000 -2.70400
H 1.04800 6.46600 -1.03600
H 0.60800 0.50100 -4.89100
H -0.69200 -2.15600 -4.54700
H -1.26700 0.74000 -6.12900
H -2.20400 0.71400 -4.59600
H -1.96700 -0.72000 -5.45300
H 1.35600 -1.75900 -5.96700
H 1.45200 -3.15700 -4.90200
H 2.71400 -0.52200 -4.79800
H 3.48700 -2.12100 -4.52900
H 2.49500 -1.30300 -3.24000
H 0.86700 -6.33300 -0.08400
H 0.40400 -5.64200 -1.68000
H -0.89100 -5.99900 -0.46300
H -1.28300 -3.58100 4.02800
H 0.69800 -4.47800 7.75500
H 0.83300 -2.61900 7.68000
H 2.00000 -3.75400 6.97600
Mg 8.94232 0.79975 0.67359
C 8.81967 2.51453 -2.47658
C 8.45147 -2.09949 -1.05501
C 8.59556 -0.68438 3.45649
C 8.28133 3.85881 2.20687
N 8.68423 0.38934 -1.48447
C 8.71734 1.11264 -2.59356
C 8.71703 0.28084 -3.90415
C 8.02958 -1.05637 -3.34010
C 8.43910 -0.94168 -1.87319
C 6.51202 -1.03084 -3.41573
C 10.16688 0.00135 -4.43505
C 10.23520 -0.53582 -5.86632
H 11.35131 -0.12237 -6.71239
N 9.06545 -1.12898 1.12458
C 8.85714 -2.17339 0.29566
C 9.04936 -3.38086 1.11371
C 9.22614 -2.96381 2.53129
C 8.94229 -1.54659 2.42648
C 9.13189 -4.75876 0.52379
C 9.57824 -3.71824 3.77752
O 9.44386 -3.19705 4.94076
C 9.99624 -5.11670 3.60125
N 8.29430 1.44062 2.54220
C 8.28967 0.60568 3.59613
C 8.04942 1.35527 4.88484
C 8.13464 2.90575 4.50230
C 8.32936 2.77934 2.97538
C 6.71666 1.07510 5.57885
C 9.14023 3.77474 5.30624
C 10.55672 3.35663 4.98354
N 8.78987 2.85843 0.03588
C 8.47944 3.97889 0.83730
C 8.37835 5.14462 -0.06452
C 8.61617 4.61312 -1.34102
C 8.82906 3.21141 -1.24409
C 8.05259 6.47371 0.32729
C 8.72500 4.91734 -2.74967
O 8.72500 5.95046 -3.41779
C 8.73640 3.55134 -3.56226
C 9.86080 3.61346 -4.55946
O 11.04321 3.65877 -4.17677
O 9.36942 3.39059 -5.79204
C 10.44854 3.43122 -6.81462
H 8.07540 -3.03389 -1.47256
H 8.57171 -1.12776 4.45465
H 8.17516 4.86456 2.61903
H 8.11879 0.69670 -4.70598
H 8.46597 -1.94462 -3.78948
H 6.14039 -0.06630 -3.72829
H 6.16380 -1.26540 -2.41835
H 6.15296 -1.83982 -4.05835
H 10.58792 -0.85498 -3.89268
H 10.77988 0.87732 -4.34820
H 9.28387 -0.41366 -6.39829
H 10.38173 -1.61785 -5.82425
H 8.80135 -4.76897 -0.52218
H 8.39394 -5.37570 1.04789
H 10.11911 -5.21000 0.64402
H 9.20287 -5.67101 3.10551
H 10.29192 -5.46070 4.59428
H 10.86308 -5.14098 2.93146
H 8.81935 1.13003 5.61255
H 7.17262 3.41662 4.65518
H 6.83312 0.71614 6.61888
H 6.16849 0.35422 4.98691
H 6.02782 1.91743 5.61320
H 9.00608 3.61459 6.37886
H 9.03377 4.83885 5.12371
H 10.71644 2.49742 5.64182
H 11.25419 4.16105 5.20824
H 10.63591 2.99942 3.95021
H 8.72984 7.12959 -0.20341
H 8.13576 6.60234 1.40447
H 7.01535 6.52892 -0.01382
H 7.76454 3.45032 -4.04687
H 10.15271 4.17395 -7.56196
H 10.57039 2.38803 -7.16198
H 11.41534 3.81308 -6.50813

