%nproc=24
%mem=175gb
#p cam-b3lyp/Def2SVP td=(nstates=5)

TDDFT excited states in gaussian

0 1
Mg 13.12879 1.18530 0.99479
C 12.38866 -1.62458 -1.11135
C 12.69442 3.16567 -1.74821
C 14.21241 3.62599 2.70833
C 14.59519 -1.05201 3.22858
N 12.60938 0.71428 -1.10297
C 12.29056 -0.38284 -1.77308
C 11.76409 -0.12810 -3.21096
C 12.44723 1.30246 -3.46724
C 12.56279 1.78069 -2.02135
C 13.84673 1.20507 -4.05141
C 10.19874 -0.03538 -3.26666
C 9.60055 -0.09687 -4.67384
H 8.32003 -0.77457 -4.85680
N 12.94953 3.13997 0.70204
C 12.75416 3.77206 -0.47422
C 12.71176 5.20796 -0.15715
C 13.06248 5.38185 1.27863
C 13.45051 4.02823 1.62101
C 12.28626 6.24868 -1.15178
C 13.06244 6.57234 2.18910
O 13.63184 6.54214 3.33701
C 12.45758 7.80305 1.65902
N 14.42661 1.30486 2.61457
C 14.68810 2.48406 3.20536
C 15.42359 2.28943 4.50980
C 15.38848 0.71570 4.79214
C 14.68561 0.24254 3.50082
C 16.87139 2.77885 4.53660
C 14.80919 0.25866 6.15897
C 13.32881 0.55915 6.21854
N 13.28796 -0.96261 1.16563
C 13.96863 -1.69061 2.16603
C 13.89325 -3.11808 1.79310
C 13.18823 -3.11949 0.58007
C 12.86578 -1.78531 0.21200
C 14.47551 -4.19821 2.51448
C 12.65272 -3.94542 -0.47812
O 12.54547 -5.15678 -0.66478
C 12.22133 -3.00454 -1.68436
C 10.84404 -3.41753 -2.12599
O 9.86820 -3.27546 -1.36824
O 10.87091 -3.70724 -3.43965
C 9.52523 -4.11168 -3.92691
H 12.80483 3.85196 -2.58827
H 14.51675 4.42248 3.39131
H 14.94269 -1.82018 3.92272
H 12.10465 -0.84094 -3.95234
H 11.79102 1.95763 -4.03426
H 14.19800 0.18457 -4.08780
H 14.47782 1.79956 -3.40384
H 13.88045 1.68868 -5.03188
H 9.88939 0.97655 -2.97505
H 9.75020 -0.78986 -2.65005
H 10.32891 -0.44451 -5.41652
H 9.35747 0.91975 -4.99230
H 12.24789 5.84069 -2.16936
H 13.08318 6.99924 -1.18995
H 11.35130 6.73977 -0.87368
H 12.97509 8.09679 0.74889
H 12.47185 8.51542 2.48618
H 11.42062 7.58967 1.37654
H 14.91869 2.80295 5.31879
H 16.39702 0.27692 4.77981
H 17.06751 3.51806 5.33609
H 17.10884 3.19558 3.56681
H 17.62138 1.99677 4.64190
H 15.27291 0.82026 6.97366
H 14.96617 -0.79505 6.36401
H 13.30240 1.61128 6.51759
H 12.83893 -0.07326 6.95618
H 12.87235 0.48746 5.22448
H 13.73758 -4.98896 2.54043
H 14.76910 -3.89428 3.51708
H 15.34025 -4.41234 1.88073
H 12.95993 -3.12890 -2.47719
H 9.63673 -5.09528 -4.39357
H 9.18041 -3.28333 -4.57397
H 8.76339 -4.31539 -3.18358

