%nproc=24
%mem=175gb
#p cam-b3lyp/Def2SVP td=(nstates=5)

TDDFT excited states in gaussian

0 1
Mg 0.00000 0.00000 0.00000
C -0.21700 -2.21800 2.80100
C -1.25500 2.44200 2.02600
C -0.24500 1.85000 -2.56400
C 0.14600 -2.82400 -2.03700
N -0.61700 -0.00900 2.12600
C -0.59400 -0.90800 3.10500
C -0.93600 -0.30900 4.50200
C -1.77300 0.96400 4.03200
C -1.15500 1.16800 2.66000
C -3.26300 0.68500 3.86300
C 0.34500 0.11000 5.29900
C 0.12400 0.39700 6.78700
H 1.16800 0.03300 7.73300
N -0.18500 1.96100 -0.15200
C -0.70300 2.80000 0.77700
C -0.62000 4.15600 0.19300
C -0.18700 4.01500 -1.22500
C -0.21400 2.58300 -1.38000
C -0.88700 5.40600 0.97400
C 0.18100 5.01300 -2.27700
O 0.30300 4.69000 -3.50800
C 0.31000 6.41400 -1.83700
N -0.26500 -0.41300 -2.02900
C -0.27900 0.56900 -2.93700
C -0.19600 0.02400 -4.33200
C 0.12400 -1.53300 -4.18000
C 0.08600 -1.63200 -2.63500
C -1.45100 0.20500 -5.19700
C 1.37300 -2.07000 -4.92300
C 2.62600 -1.49000 -4.30600
N 0.15000 -2.14400 0.30300
C 0.17300 -3.13600 -0.68800
C 0.17300 -4.43800 0.00400
C 0.13300 -4.11100 1.35800
C 0.08300 -2.69500 1.50200
C 0.14900 -5.71500 -0.62300
C 0.09600 -4.62900 2.71600
O 0.20800 -5.74700 3.22100
C -0.25500 -3.42800 3.70100
C 0.71700 -3.48200 4.84800
O 1.93100 -3.25500 4.66900
O 0.03800 -3.55600 6.00300
C 0.94300 -3.58300 7.18300
H -1.85900 3.22000 2.49700
H -0.21800 2.45300 -3.47400
H 0.27600 -3.74700 -2.60500
H -1.55400 -0.94900 5.13200
H -1.58500 1.83100 4.66500
H -3.48400 -0.37700 3.96900
H -3.51100 1.02700 2.85800
H -3.85200 1.30100 4.54300
H 0.66900 1.09600 4.96600
H 1.13000 -0.63900 5.18900
H -0.84400 0.02600 7.12500
H 0.06200 1.47700 6.92100
H -1.34400 5.18600 1.93800
H -1.65100 5.96300 0.43200
H 0.00700 6.02000 1.08400
H -0.63500 6.74400 -1.40500
H 0.66500 6.97000 -2.70400
H 1.04800 6.46600 -1.03600
H 0.60800 0.50100 -4.89100
H -0.69200 -2.15600 -4.54700
H -1.26700 0.74000 -6.12900
H -2.20400 0.71400 -4.59600
H -1.96700 -0.72000 -5.45300
H 1.35600 -1.75900 -5.96700
H 1.45200 -3.15700 -4.90200
H 2.71400 -0.52200 -4.79800
H 3.48700 -2.12100 -4.52900
H 2.49500 -1.30300 -3.24000
H 0.86700 -6.33300 -0.08400
H 0.40400 -5.64200 -1.68000
H -0.89100 -5.99900 -0.46300
H -1.28300 -3.58100 4.02800
H 0.69800 -4.47800 7.75500
H 0.83300 -2.61900 7.68000
H 2.00000 -3.75400 6.97600
Mg 31.54032 2.83189 2.39738
C 31.72812 1.07671 -0.72722
C 30.81517 -0.16103 3.86409
C 30.92551 4.40882 5.08117
C 31.14596 5.76970 0.56450
N 31.32788 0.79162 1.57007
C 31.48248 0.23548 0.37795
C 31.44708 -1.31639 0.38272
C 30.59934 -1.53345 1.72923
C 30.95889 -0.23902 2.45577
C 29.09738 -1.55038 1.49864
C 32.87942 -1.94659 0.49785
C 32.94836 -3.44574 0.19862
H 34.13541 -3.96758 -0.47299
N 31.43976 2.18701 4.27157
C 31.15561 0.93488 4.68714
C 31.18532 0.98241 6.15718
C 31.34771 2.40076 6.57746
C 31.22029 3.07080 5.29883
C 31.14506 -0.25080 7.01217
C 31.56697 3.04802 7.91132
O 31.44158 4.31310 8.07462
C 31.84105 2.14687 9.04017
N 30.88870 4.76939 2.77662
C 30.75280 5.21889 4.03654
C 30.54135 6.71389 4.06250
C 30.80602 7.21127 2.56579
C 31.04799 5.84641 1.88461
C 29.15936 7.18248 4.51735
C 31.86469 8.33146 2.37327
C 33.24075 7.80476 2.71156
N 31.63311 3.38823 0.31173
C 31.41106 4.66894 -0.24014
C 31.47086 4.52627 -1.70932
C 31.70252 3.15748 -1.91243
C 31.76140 2.49056 -0.65893
C 31.27231 5.57113 -2.65535
C 31.90004 2.12338 -2.90253
O 32.03673 2.10601 -4.12513
C 31.79941 0.70944 -2.18347
C 32.96355 -0.12716 -2.63887
O 34.12761 0.19491 -2.34246
O 32.50170 -1.27872 -3.15941
C 33.61962 -2.14723 -3.61524
H 30.35935 -1.00258 4.38648
H 30.81431 5.01943 5.98020
H 31.13045 6.65523 -0.07445
H 30.92933 -1.76154 -0.45845
H 30.95690 -2.39543 2.28646
H 28.84314 -1.29474 0.48072
H 28.68608 -0.82237 2.18557
H 28.68087 -2.51635 1.79822
H 33.18490 -1.95119 1.55209
H 33.57786 -1.42144 -0.12426
H 32.03771 -3.81045 -0.29196
H 32.97744 -3.98791 1.14690
H 30.85799 -1.13493 6.42966
H 30.32518 -0.11812 7.72635
H 32.07315 -0.41040 7.56521
H 31.01411 1.45015 9.15510
H 32.05806 2.79883 9.88854
H 32.72687 1.54743 8.80221
H 31.25290 7.19368 4.72325
H 29.89823 7.63334 2.11015
H 29.19481 7.87029 5.38322
H 28.56227 6.31041 4.74864
H 28.56294 7.67411 3.75067
H 31.67092 9.15798 3.06136
H 31.87921 8.74425 1.37008
H 33.28160 7.90260 3.80052
H 34.00993 8.40682 2.23205
H 33.32343 6.73801 2.47311
H 32.03628 5.45488 -3.41253
H 31.32491 6.55005 -2.18341
H 30.26147 5.33444 -2.99806
H 30.84277 0.26680 -2.46361
H 33.43479 -2.37935 -4.66864
H 33.64409 -2.99810 -2.90873
H 34.60824 -1.70622 -3.66616

