%nproc=24
%mem=175gb
#p cam-b3lyp/Def2SVP td=(nstates=5)

TDDFT excited states in gaussian

0 1
Mg 0.00000 0.00000 0.00000
C -0.21700 -2.21800 2.80100
C -1.25500 2.44200 2.02600
C -0.24500 1.85000 -2.56400
C 0.14600 -2.82400 -2.03700
N -0.61700 -0.00900 2.12600
C -0.59400 -0.90800 3.10500
C -0.93600 -0.30900 4.50200
C -1.77300 0.96400 4.03200
C -1.15500 1.16800 2.66000
C -3.26300 0.68500 3.86300
C 0.34500 0.11000 5.29900
C 0.12400 0.39700 6.78700
H 1.16800 0.03300 7.73300
N -0.18500 1.96100 -0.15200
C -0.70300 2.80000 0.77700
C -0.62000 4.15600 0.19300
C -0.18700 4.01500 -1.22500
C -0.21400 2.58300 -1.38000
C -0.88700 5.40600 0.97400
C 0.18100 5.01300 -2.27700
O 0.30300 4.69000 -3.50800
C 0.31000 6.41400 -1.83700
N -0.26500 -0.41300 -2.02900
C -0.27900 0.56900 -2.93700
C -0.19600 0.02400 -4.33200
C 0.12400 -1.53300 -4.18000
C 0.08600 -1.63200 -2.63500
C -1.45100 0.20500 -5.19700
C 1.37300 -2.07000 -4.92300
C 2.62600 -1.49000 -4.30600
N 0.15000 -2.14400 0.30300
C 0.17300 -3.13600 -0.68800
C 0.17300 -4.43800 0.00400
C 0.13300 -4.11100 1.35800
C 0.08300 -2.69500 1.50200
C 0.14900 -5.71500 -0.62300
C 0.09600 -4.62900 2.71600
O 0.20800 -5.74700 3.22100
C -0.25500 -3.42800 3.70100
C 0.71700 -3.48200 4.84800
O 1.93100 -3.25500 4.66900
O 0.03800 -3.55600 6.00300
C 0.94300 -3.58300 7.18300
H -1.85900 3.22000 2.49700
H -0.21800 2.45300 -3.47400
H 0.27600 -3.74700 -2.60500
H -1.55400 -0.94900 5.13200
H -1.58500 1.83100 4.66500
H -3.48400 -0.37700 3.96900
H -3.51100 1.02700 2.85800
H -3.85200 1.30100 4.54300
H 0.66900 1.09600 4.96600
H 1.13000 -0.63900 5.18900
H -0.84400 0.02600 7.12500
H 0.06200 1.47700 6.92100
H -1.34400 5.18600 1.93800
H -1.65100 5.96300 0.43200
H 0.00700 6.02000 1.08400
H -0.63500 6.74400 -1.40500
H 0.66500 6.97000 -2.70400
H 1.04800 6.46600 -1.03600
H 0.60800 0.50100 -4.89100
H -0.69200 -2.15600 -4.54700
H -1.26700 0.74000 -6.12900
H -2.20400 0.71400 -4.59600
H -1.96700 -0.72000 -5.45300
H 1.35600 -1.75900 -5.96700
H 1.45200 -3.15700 -4.90200
H 2.71400 -0.52200 -4.79800
H 3.48700 -2.12100 -4.52900
H 2.49500 -1.30300 -3.24000
H 0.86700 -6.33300 -0.08400
H 0.40400 -5.64200 -1.68000
H -0.89100 -5.99900 -0.46300
H -1.28300 -3.58100 4.02800
H 0.69800 -4.47800 7.75500
H 0.83300 -2.61900 7.68000
H 2.00000 -3.75400 6.97600
Mg 31.54049 2.83764 2.38839
C 31.20764 5.85036 0.46698
C 31.03287 1.11091 -0.50908
C 31.37942 0.18125 4.11613
C 30.88385 4.74318 5.23153
N 31.17909 3.50643 0.31129
C 31.13502 4.67539 -0.30995
C 31.08655 4.57938 -1.85849
C 30.46420 3.10472 -1.98862
C 30.94772 2.51761 -0.66417
C 28.94461 3.09085 -1.99079
C 32.51291 4.66019 -2.50731
C 32.51906 4.88339 -4.02121
H 33.57793 5.70635 -4.59914
N 31.73641 0.93879 1.84567
C 31.51120 0.41465 0.62263
C 31.77715 -1.02682 0.74746
C 32.01802 -1.33678 2.18295
C 31.69300 -0.05998 2.78646
C 31.86342 -1.94399 -0.43777
C 32.45469 -2.58063 2.89596
O 32.36882 -2.69179 4.16997
C 32.89827 -3.69911 2.05113
N 30.97615 2.46660 4.35466
C 31.04858 1.22792 4.87267
C 30.85784 1.25103 6.37050
C 30.88317 2.79595 6.78302
C 30.99996 3.43067 5.37985
C 29.57125 0.60759 6.88727
C 31.90743 3.21683 7.87225
C 33.31505 3.07442 7.33960
N 31.30210 4.93877 2.83166
C 31.00607 5.51786 4.08509
C 30.82773 6.96755 3.86370
C 31.01112 7.12923 2.48214
C 31.26449 5.86641 1.88164
C 30.48940 7.92586 4.86034
C 31.03747 8.07957 1.39363
O 30.97578 9.30545 1.30904
C 31.04065 7.27674 0.02182
C 32.10874 7.86557 -0.85850
O 33.30822 7.77737 -0.54212
O 31.55867 8.24119 -2.02756
C 32.58077 8.82130 -2.93893
H 30.65916 0.47670 -1.31344
H 31.41973 -0.68890 4.77544
H 30.77404 5.41932 6.08209
H 30.43630 5.30105 -2.33823
H 30.89868 2.56513 -2.82614
H 28.53250 4.06755 -1.78494
H 28.65574 2.38823 -1.22013
H 28.57277 2.67566 -2.93190
H 32.98374 3.66975 -2.46151
H 33.10713 5.41402 -2.02850
H 31.53810 5.20113 -4.39500
H 32.69512 3.92351 -4.51279
H 31.47835 -1.46459 -1.34624
H 31.17020 -2.77167 -0.25273
H 32.86679 -2.34944 -0.58447
H 32.09415 -3.98308 1.37644
H 33.25475 -4.46455 2.74315
H 33.72878 -3.35600 1.42412
H 31.67070 0.74008 6.87179
H 29.91789 3.12313 7.19657
H 29.75170 -0.20218 7.61925
H 29.01107 0.23600 6.03954
H 28.86396 1.29497 7.34819
H 31.83435 2.55329 8.73742
H 31.76438 4.23067 8.23096
H 33.53122 2.01308 7.49427
H 34.00271 3.70326 7.90150
H 33.34851 3.26377 6.26040
H 31.12069 8.78789 4.69043
H 30.62616 7.52317 5.86180
H 29.43449 8.08891 4.62401
H 30.04739 7.37541 -0.41780
H 32.22697 9.81714 -3.22320
H 32.71060 8.08192 -3.75146
H 33.55239 9.05393 -2.51906

