%nproc=24
%mem=175gb
#p cam-b3lyp/Def2SVP td=(nstates=5)

TDDFT excited states in gaussian

0 1
Mg 0.00000 0.00000 0.00000
C -0.21700 -2.21800 2.80100
C -1.25500 2.44200 2.02600
C -0.24500 1.85000 -2.56400
C 0.14600 -2.82400 -2.03700
N -0.61700 -0.00900 2.12600
C -0.59400 -0.90800 3.10500
C -0.93600 -0.30900 4.50200
C -1.77300 0.96400 4.03200
C -1.15500 1.16800 2.66000
C -3.26300 0.68500 3.86300
C 0.34500 0.11000 5.29900
C 0.12400 0.39700 6.78700
H 1.16800 0.03300 7.73300
N -0.18500 1.96100 -0.15200
C -0.70300 2.80000 0.77700
C -0.62000 4.15600 0.19300
C -0.18700 4.01500 -1.22500
C -0.21400 2.58300 -1.38000
C -0.88700 5.40600 0.97400
C 0.18100 5.01300 -2.27700
O 0.30300 4.69000 -3.50800
C 0.31000 6.41400 -1.83700
N -0.26500 -0.41300 -2.02900
C -0.27900 0.56900 -2.93700
C -0.19600 0.02400 -4.33200
C 0.12400 -1.53300 -4.18000
C 0.08600 -1.63200 -2.63500
C -1.45100 0.20500 -5.19700
C 1.37300 -2.07000 -4.92300
C 2.62600 -1.49000 -4.30600
N 0.15000 -2.14400 0.30300
C 0.17300 -3.13600 -0.68800
C 0.17300 -4.43800 0.00400
C 0.13300 -4.11100 1.35800
C 0.08300 -2.69500 1.50200
C 0.14900 -5.71500 -0.62300
C 0.09600 -4.62900 2.71600
O 0.20800 -5.74700 3.22100
C -0.25500 -3.42800 3.70100
C 0.71700 -3.48200 4.84800
O 1.93100 -3.25500 4.66900
O 0.03800 -3.55600 6.00300
C 0.94300 -3.58300 7.18300
H -1.85900 3.22000 2.49700
H -0.21800 2.45300 -3.47400
H 0.27600 -3.74700 -2.60500
H -1.55400 -0.94900 5.13200
H -1.58500 1.83100 4.66500
H -3.48400 -0.37700 3.96900
H -3.51100 1.02700 2.85800
H -3.85200 1.30100 4.54300
H 0.66900 1.09600 4.96600
H 1.13000 -0.63900 5.18900
H -0.84400 0.02600 7.12500
H 0.06200 1.47700 6.92100
H -1.34400 5.18600 1.93800
H -1.65100 5.96300 0.43200
H 0.00700 6.02000 1.08400
H -0.63500 6.74400 -1.40500
H 0.66500 6.97000 -2.70400
H 1.04800 6.46600 -1.03600
H 0.60800 0.50100 -4.89100
H -0.69200 -2.15600 -4.54700
H -1.26700 0.74000 -6.12900
H -2.20400 0.71400 -4.59600
H -1.96700 -0.72000 -5.45300
H 1.35600 -1.75900 -5.96700
H 1.45200 -3.15700 -4.90200
H 2.71400 -0.52200 -4.79800
H 3.48700 -2.12100 -4.52900
H 2.49500 -1.30300 -3.24000
H 0.86700 -6.33300 -0.08400
H 0.40400 -5.64200 -1.68000
H -0.89100 -5.99900 -0.46300
H -1.28300 -3.58100 4.02800
H 0.69800 -4.47800 7.75500
H 0.83300 -2.61900 7.68000
H 2.00000 -3.75400 6.97600
Mg 15.77257 1.42579 1.20332
C 15.44706 -0.02150 4.47111
C 14.52907 4.31508 2.52252
C 15.62268 2.59034 -1.74436
C 15.89200 -1.81659 -0.06886
N 15.11077 1.95489 3.24643
C 15.09070 1.34228 4.42059
C 14.74189 2.26308 5.62060
C 13.93499 3.40050 4.82434
C 14.58461 3.24493 3.45085
C 12.45127 3.10184 4.68753
C 16.02074 2.84711 6.31736
C 15.76972 3.50173 7.67759
H 16.79196 3.37100 8.71220
N 15.63568 3.30122 0.56882
C 15.12451 4.35292 1.24254
C 15.23546 5.50489 0.33434
C 15.70230 5.01423 -0.99081
C 15.65059 3.58218 -0.77481
C 14.98825 6.91753 0.77791
C 16.11343 5.71724 -2.24896
O 16.25514 5.08780 -3.35646
C 16.25440 7.17839 -2.16739
N 15.54646 0.52732 -0.65786
C 15.56654 1.25900 -1.78576
C 15.66391 0.37615 -3.00702
C 15.94997 -1.09590 -2.45130
C 15.87662 -0.81258 -0.93481
C 14.42958 0.34871 -3.90816
C 17.20287 -1.82677 -3.00694
C 18.45861 -1.12996 -2.53473
N 15.87353 -0.56721 2.03145
C 15.88871 -1.78683 1.31985
C 15.84608 -2.87433 2.31883
C 15.78534 -2.20654 3.55125
C 15.76942 -0.80214 3.33470
C 15.81709 -4.26797 2.03066
C 15.72035 -2.37044 4.98569
O 15.79043 -3.32833 5.75464
C 15.37080 -0.96454 5.63964
C 16.31748 -0.73738 6.78625
O 17.53578 -0.59475 6.58126
O 15.60688 -0.50990 7.90592
C 16.50186 -0.26798 9.06881
H 13.93843 5.19481 2.77962
H 15.68181 2.93944 -2.77785
H 16.02484 -2.85468 -0.38095
H 14.10399 1.81034 6.37019
H 14.13744 4.38739 5.23230
H 12.20438 2.11384 5.04675
H 12.23026 3.18666 3.63159
H 11.86293 3.88007 5.18204
H 16.37039 3.71962 5.75061
H 16.77965 2.09506 6.41281
H 14.78108 3.24974 8.08014
H 15.73493 4.58520 7.54013
H 14.49973 6.95126 1.75955
H 14.24837 7.34337 0.09154
H 15.89078 7.53180 0.75012
H 15.31012 7.61521 -1.85119
H 16.64043 7.48949 -3.14006
H 16.98761 7.41620 -1.38863
H 16.48951 0.67983 -3.63890
H 15.12524 -1.78603 -2.68231
H 14.64616 0.63760 -4.95397
H 13.68028 1.00167 -3.48068
H 13.90819 -0.60615 -3.94825
H 17.21464 -1.78145 -4.09871
H 17.25140 -2.87394 -2.72755
H 18.57190 -0.31218 -3.25271
H 19.30930 -1.80751 -2.57075
H 18.31162 -0.68182 -1.54518
H 16.50351 -4.74260 2.71918
H 16.09007 -4.46582 0.99620
H 14.76367 -4.48566 2.22605
H 14.33173 -1.00554 5.96861
H 16.22230 -0.98955 9.84267
H 16.38813 0.80442 9.31531
H 17.55561 -0.48859 8.94470

