%nproc=24
%mem=175gb
#p cam-b3lyp/Def2SVP td=(nstates=5)

TDDFT excited states in gaussian

0 1
Mg 13.14732 1.18666 0.99347
C 15.64752 -0.96939 2.40042
C 14.81364 3.80030 2.41715
C 10.72693 3.05834 0.15326
C 11.10682 -1.62015 0.67120
N 14.98197 1.27684 2.22561
C 15.88187 0.39989 2.64453
C 17.14147 1.03189 3.29533
C 16.50076 2.43303 3.74829
C 15.38142 2.53561 2.71425
C 15.87128 2.38804 5.13070
C 18.30640 1.23938 2.26484
C 19.66617 1.56271 2.88791
H 20.86825 1.03684 2.24687
N 13.05138 3.16120 0.81858
C 13.81886 4.07250 1.45245
C 13.33962 5.38734 0.99894
C 12.11905 5.18227 0.17258
C 11.90175 3.76328 0.37096
C 14.07178 6.66506 1.29015
C 11.27822 6.11219 -0.64866
O 10.12633 5.76526 -1.09096
C 11.80189 7.47244 -0.84098
N 11.12460 0.82112 0.68151
C 10.30046 1.80065 0.27012
C 8.96074 1.24541 -0.15091
C 9.13958 -0.34373 -0.16518
C 10.58912 -0.43998 0.35918
C 7.77673 1.61604 0.74191
C 8.78037 -1.08055 -1.48455
C 9.76433 -0.70579 -2.56934
N 13.37780 -0.94379 1.26935
C 12.38804 -1.93732 1.10395
C 12.98796 -3.22254 1.51714
C 14.28811 -2.88130 1.91921
C 14.47799 -1.47923 1.78641
C 12.32540 -4.48223 1.53516
C 15.53960 -3.38685 2.43583
O 15.99672 -4.50626 2.66319
C 16.43386 -2.15375 2.88988
C 17.81743 -2.35401 2.33476
O 18.01451 -2.33630 1.10698
O 18.70679 -2.31590 3.34369
C 20.09477 -2.49887 2.84184
H 15.12832 4.66174 3.00688
H 9.89339 3.64225 -0.24390
H 10.56767 -2.55573 0.50784
H 17.52160 0.50023 4.15939
H 17.20853 3.24883 3.62625
H 15.85434 1.38614 5.53326
H 14.86382 2.76339 5.00754
H 16.37598 3.09271 5.79783
H 18.12978 2.16799 1.70695
H 18.39852 0.38894 1.61761
H 19.68478 1.35890 3.96543
H 19.83345 2.64015 2.81601
H 14.84323 6.52090 2.05663
H 13.35172 7.34752 1.75450
H 14.47393 7.13466 0.38992
H 11.94663 7.94405 0.12808
H 11.10613 7.95912 -1.52723
H 12.79054 7.40386 -1.30842
H 8.70005 1.57868 -1.14794
H 8.50086 -0.83240 0.58521
H 6.95965 2.12334 0.19500
H 8.13927 2.23984 1.54812
H 7.32500 0.78376 1.27899
H 7.79493 -0.76663 -1.83743
H 8.75734 -2.16050 -1.38368
H 9.36671 0.24105 -2.94680
H 9.78272 -1.46487 -3.34876
H 10.75579 -0.50246 -2.14825
H 13.01862 -5.20452 1.12500
H 11.39849 -4.45209 0.96622
H 12.14521 -4.59249 2.60784
H 16.42973 -2.12999 3.98029
H 20.52347 -3.34423 3.38889
H 20.58878 -1.51672 2.96473
H 20.21776 -2.82645 1.81616

