%nproc=24
%mem=175gb
#p cam-b3lyp/Def2SVP td=(nstates=5)

TDDFT excited states in gaussian

0 1
Mg 0.00000 0.00000 0.00000
C -0.21700 -2.21800 2.80100
C -1.25500 2.44200 2.02600
C -0.24500 1.85000 -2.56400
C 0.14600 -2.82400 -2.03700
N -0.61700 -0.00900 2.12600
C -0.59400 -0.90800 3.10500
C -0.93600 -0.30900 4.50200
C -1.77300 0.96400 4.03200
C -1.15500 1.16800 2.66000
C -3.26300 0.68500 3.86300
C 0.34500 0.11000 5.29900
C 0.12400 0.39700 6.78700
H 1.16800 0.03300 7.73300
N -0.18500 1.96100 -0.15200
C -0.70300 2.80000 0.77700
C -0.62000 4.15600 0.19300
C -0.18700 4.01500 -1.22500
C -0.21400 2.58300 -1.38000
C -0.88700 5.40600 0.97400
C 0.18100 5.01300 -2.27700
O 0.30300 4.69000 -3.50800
C 0.31000 6.41400 -1.83700
N -0.26500 -0.41300 -2.02900
C -0.27900 0.56900 -2.93700
C -0.19600 0.02400 -4.33200
C 0.12400 -1.53300 -4.18000
C 0.08600 -1.63200 -2.63500
C -1.45100 0.20500 -5.19700
C 1.37300 -2.07000 -4.92300
C 2.62600 -1.49000 -4.30600
N 0.15000 -2.14400 0.30300
C 0.17300 -3.13600 -0.68800
C 0.17300 -4.43800 0.00400
C 0.13300 -4.11100 1.35800
C 0.08300 -2.69500 1.50200
C 0.14900 -5.71500 -0.62300
C 0.09600 -4.62900 2.71600
O 0.20800 -5.74700 3.22100
C -0.25500 -3.42800 3.70100
C 0.71700 -3.48200 4.84800
O 1.93100 -3.25500 4.66900
O 0.03800 -3.55600 6.00300
C 0.94300 -3.58300 7.18300
H -1.85900 3.22000 2.49700
H -0.21800 2.45300 -3.47400
H 0.27600 -3.74700 -2.60500
H -1.55400 -0.94900 5.13200
H -1.58500 1.83100 4.66500
H -3.48400 -0.37700 3.96900
H -3.51100 1.02700 2.85800
H -3.85200 1.30100 4.54300
H 0.66900 1.09600 4.96600
H 1.13000 -0.63900 5.18900
H -0.84400 0.02600 7.12500
H 0.06200 1.47700 6.92100
H -1.34400 5.18600 1.93800
H -1.65100 5.96300 0.43200
H 0.00700 6.02000 1.08400
H -0.63500 6.74400 -1.40500
H 0.66500 6.97000 -2.70400
H 1.04800 6.46600 -1.03600
H 0.60800 0.50100 -4.89100
H -0.69200 -2.15600 -4.54700
H -1.26700 0.74000 -6.12900
H -2.20400 0.71400 -4.59600
H -1.96700 -0.72000 -5.45300
H 1.35600 -1.75900 -5.96700
H 1.45200 -3.15700 -4.90200
H 2.71400 -0.52200 -4.79800
H 3.48700 -2.12100 -4.52900
H 2.49500 -1.30300 -3.24000
H 0.86700 -6.33300 -0.08400
H 0.40400 -5.64200 -1.68000
H -0.89100 -5.99900 -0.46300
H -1.28300 -3.58100 4.02800
H 0.69800 -4.47800 7.75500
H 0.83300 -2.61900 7.68000
H 2.00000 -3.75400 6.97600
Mg 8.94162 0.80638 0.68598
C 7.80102 -1.24554 3.40034
C 8.58829 3.48932 2.76243
C 9.50811 2.68500 -1.80747
C 8.11935 -1.81503 -1.45826
N 8.27348 0.97275 2.78793
C 7.92383 0.11845 3.73781
C 7.77068 0.75090 5.14710
C 7.47764 2.26534 4.70048
C 8.18491 2.26218 3.34681
C 6.00300 2.54966 4.46824
C 9.08663 0.64658 5.99528
C 8.91957 0.96324 7.48309
H 9.72160 0.21619 8.44804
N 9.50318 2.70844 0.61239
C 9.29859 3.65426 1.55305
C 9.88289 4.89169 1.01311
C 10.30268 4.63805 -0.39194
C 9.75673 3.31105 -0.59470
C 10.07028 6.13102 1.83916
C 11.05797 5.45964 -1.39231
O 11.10332 5.13690 -2.63191
C 11.66475 6.70307 -0.89514
N 8.63541 0.56900 -1.35662
C 9.01942 1.51816 -2.22815
C 8.95178 1.01302 -3.64964
C 8.67212 -0.55738 -3.53469
C 8.53167 -0.67783 -2.00135
C 7.88404 1.65642 -4.53416
C 9.66525 -1.50421 -4.26261
C 11.02136 -1.43970 -3.59763
N 8.28635 -1.24007 0.91116
C 7.97460 -2.15415 -0.11907
C 7.46576 -3.38137 0.52702
C 7.49536 -3.08537 1.89815
C 7.96883 -1.75953 2.09175
C 7.00882 -4.54849 -0.14764
C 7.22369 -3.58926 3.22517
O 6.88848 -4.67838 3.68906
C 7.28996 -2.37595 4.24981
C 8.12739 -2.80442 5.42354
O 9.33889 -3.04629 5.28085
O 7.41444 -2.64826 6.55390
C 8.20651 -3.04976 7.74689
H 8.29775 4.41827 3.25387
H 9.79183 3.25153 -2.69743
H 7.93438 -2.71242 -2.05252
H 6.94115 0.36779 5.72923
H 7.94948 2.97456 5.37556
H 5.40543 1.65215 4.52752
H 5.93912 2.98201 3.47827
H 5.65512 3.32378 5.15820
H 9.76495 1.45929 5.70522
H 9.53869 -0.31932 5.87995
H 7.86559 0.97456 7.78630
H 9.26052 1.98612 7.66059
H 9.51643 6.07206 2.78424
H 9.59258 6.95310 1.29523
H 11.12256 6.37646 1.99767
H 10.88971 7.34124 -0.47739
H 12.23565 7.10548 -1.73420
H 12.34573 6.45575 -0.07313
H 9.89507 1.16559 -4.15957
H 7.69590 -0.82975 -3.96204
H 8.29675 2.11721 -5.45145
H 7.35116 2.39166 -3.94594
H 7.08371 0.98986 -4.85096
H 9.81039 -1.17900 -5.29573
H 9.33371 -2.53674 -4.29358
H 11.47652 -0.55393 -4.05076
H 11.59844 -2.33583 -3.81668
H 10.92393 -1.24701 -2.52291
H 7.42002 -5.39641 0.38383
H 7.31208 -4.54810 -1.19253
H 5.92806 -4.42901 -0.03384
H 6.26655 -2.13787 4.54226
H 7.62125 -3.80587 8.27930
H 8.42791 -2.11083 8.28831
H 9.13475 -3.58238 7.57616

