%nproc=24
%mem=175gb
#p cam-b3lyp/Def2SVP td=(nstates=5)

TDDFT excited states in gaussian

0 1
Mg 31.53926 2.84684 2.39366
C 30.92981 4.85361 5.30579
C 30.55682 5.52605 0.52517
C 31.63341 0.97162 -0.16410
C 31.36553 0.04485 4.45869
N 30.85502 4.87312 2.95779
C 30.72247 5.54287 4.09279
C 30.42495 7.05604 3.91572
C 29.77621 7.00337 2.44765
C 30.46082 5.74294 1.92297
C 28.27596 6.76172 2.46096
C 31.72922 7.92809 3.93641
C 31.49411 9.43347 4.07891
H 32.45391 10.21782 4.85095
N 31.62794 3.30826 0.46550
C 31.20433 4.44873 -0.11860
C 31.47359 4.28866 -1.55597
C 31.93910 2.89528 -1.79369
C 31.72704 2.31896 -0.48106
C 31.35985 5.41999 -2.53607
C 32.47317 2.19373 -3.00563
O 32.59209 0.91822 -3.04755
C 32.76492 3.03558 -4.17509
N 31.29477 0.79819 2.13754
C 31.43807 0.23085 0.92696
C 31.49068 -1.27461 1.03285
C 31.59619 -1.59186 2.59676
C 31.49187 -0.15521 3.15401
C 30.29797 -2.02521 0.44090
C 32.78599 -2.47835 3.05633
C 34.08837 -1.73613 2.86064
N 31.39456 2.48781 4.51927
C 31.30911 1.23707 5.16920
C 31.11088 1.50676 6.60808
C 31.07140 2.90666 6.69299
C 31.21335 3.46932 5.39578
C 30.94592 0.52327 7.62379
C 30.93127 4.03615 7.58368
O 30.86809 4.17732 8.80426
C 30.70661 5.34437 6.70934
C 31.62477 6.41532 7.23142
O 32.85862 6.29046 7.13860
O 30.89749 7.50029 7.55435
C 31.76519 8.59401 8.06690
H 30.05290 6.22405 -0.14398
H 31.77110 0.28024 -0.99867
H 31.40005 -0.77369 5.18083
H 29.71275 7.46471 4.62250
H 30.06550 7.86852 1.85671
H 27.91129 6.54684 3.45443
H 28.10820 5.91719 1.80547
H 27.75393 7.60688 2.00321
H 32.19215 7.90357 2.94151
H 32.39957 7.59281 4.70378
H 30.46881 9.66252 4.39395
H 31.58006 9.89313 3.09132
H 30.83826 6.28023 -2.09866
H 30.69777 5.08106 -3.34021
H 32.32284 5.70266 -2.96667
H 31.86027 3.55628 -4.47995
H 33.22090 2.36831 -4.90906
H 33.48703 3.80532 -3.88066
H 32.36878 -1.66687 0.53468
H 30.71295 -2.13576 2.96267
H 30.58620 -2.76248 -0.33204
H 29.60546 -1.29979 0.03501
H 29.68028 -2.55466 1.16432
H 32.84675 -3.37936 2.44099
H 32.71178 -2.79881 4.09015
H 34.31680 -1.91257 1.80528
H 34.86314 -2.14524 3.50593
H 33.94975 -0.65668 2.99190
H 31.54962 0.83928 8.46414
H 31.23809 -0.46410 7.27236
H 29.86829 0.59649 7.79299
H 29.65657 5.62426 6.80238
H 31.37950 8.87256 9.05247
H 31.75597 9.37478 7.28328
H 32.79375 8.34842 8.30398

