%nproc=24
%mem=175gb
#p cam-b3lyp/Def2SVP td=(nstates=5)

TDDFT excited states in gaussian

0 1
Mg 0.00000 0.00000 0.00000
C -0.21700 -2.21800 2.80100
C -1.25500 2.44200 2.02600
C -0.24500 1.85000 -2.56400
C 0.14600 -2.82400 -2.03700
N -0.61700 -0.00900 2.12600
C -0.59400 -0.90800 3.10500
C -0.93600 -0.30900 4.50200
C -1.77300 0.96400 4.03200
C -1.15500 1.16800 2.66000
C -3.26300 0.68500 3.86300
C 0.34500 0.11000 5.29900
C 0.12400 0.39700 6.78700
H 1.16800 0.03300 7.73300
N -0.18500 1.96100 -0.15200
C -0.70300 2.80000 0.77700
C -0.62000 4.15600 0.19300
C -0.18700 4.01500 -1.22500
C -0.21400 2.58300 -1.38000
C -0.88700 5.40600 0.97400
C 0.18100 5.01300 -2.27700
O 0.30300 4.69000 -3.50800
C 0.31000 6.41400 -1.83700
N -0.26500 -0.41300 -2.02900
C -0.27900 0.56900 -2.93700
C -0.19600 0.02400 -4.33200
C 0.12400 -1.53300 -4.18000
C 0.08600 -1.63200 -2.63500
C -1.45100 0.20500 -5.19700
C 1.37300 -2.07000 -4.92300
C 2.62600 -1.49000 -4.30600
N 0.15000 -2.14400 0.30300
C 0.17300 -3.13600 -0.68800
C 0.17300 -4.43800 0.00400
C 0.13300 -4.11100 1.35800
C 0.08300 -2.69500 1.50200
C 0.14900 -5.71500 -0.62300
C 0.09600 -4.62900 2.71600
O 0.20800 -5.74700 3.22100
C -0.25500 -3.42800 3.70100
C 0.71700 -3.48200 4.84800
O 1.93100 -3.25500 4.66900
O 0.03800 -3.55600 6.00300
C 0.94300 -3.58300 7.18300
H -1.85900 3.22000 2.49700
H -0.21800 2.45300 -3.47400
H 0.27600 -3.74700 -2.60500
H -1.55400 -0.94900 5.13200
H -1.58500 1.83100 4.66500
H -3.48400 -0.37700 3.96900
H -3.51100 1.02700 2.85800
H -3.85200 1.30100 4.54300
H 0.66900 1.09600 4.96600
H 1.13000 -0.63900 5.18900
H -0.84400 0.02600 7.12500
H 0.06200 1.47700 6.92100
H -1.34400 5.18600 1.93800
H -1.65100 5.96300 0.43200
H 0.00700 6.02000 1.08400
H -0.63500 6.74400 -1.40500
H 0.66500 6.97000 -2.70400
H 1.04800 6.46600 -1.03600
H 0.60800 0.50100 -4.89100
H -0.69200 -2.15600 -4.54700
H -1.26700 0.74000 -6.12900
H -2.20400 0.71400 -4.59600
H -1.96700 -0.72000 -5.45300
H 1.35600 -1.75900 -5.96700
H 1.45200 -3.15700 -4.90200
H 2.71400 -0.52200 -4.79800
H 3.48700 -2.12100 -4.52900
H 2.49500 -1.30300 -3.24000
H 0.86700 -6.33300 -0.08400
H 0.40400 -5.64200 -1.68000
H -0.89100 -5.99900 -0.46300
H -1.28300 -3.58100 4.02800
H 0.69800 -4.47800 7.75500
H 0.83300 -2.61900 7.68000
H 2.00000 -3.75400 6.97600
Mg 31.54037 2.83181 2.39690
C 31.71805 1.27784 -0.83307
C 30.83756 -0.25109 3.67611
C 30.93394 4.23353 5.17806
C 31.12181 5.87722 0.75495
N 31.33251 0.84666 1.44388
C 31.48273 0.36747 0.21825
C 31.45450 -1.18177 0.12543
C 30.61562 -1.48740 1.46025
C 30.97344 -0.23953 2.26490
C 29.11244 -1.49723 1.23735
C 32.89038 -1.81085 0.19273
C 32.96448 -3.28783 -0.20074
H 34.14999 -3.76044 -0.91043
N 31.45369 2.06970 4.22726
C 31.17773 0.79249 4.56468
C 31.21578 0.74749 6.03461
C 31.37408 2.13735 6.54251
C 31.23614 2.88594 5.30936
C 31.18618 -0.53730 6.81041
C 31.59811 2.70040 7.91327
O 31.46785 3.95205 8.15663
C 31.88292 1.73132 8.98157
N 30.88205 4.73833 2.90104
C 30.75141 5.10691 4.18751
C 30.53324 6.59624 4.30877
C 30.78689 7.18820 2.84493
C 31.03118 5.87016 2.07779
C 29.15177 7.02839 4.79986
C 31.83926 8.32353 2.71752
C 33.21967 7.78340 3.01436
N 31.61845 3.51885 0.34996
C 31.38729 4.83065 -0.11889
C 31.43919 4.78108 -1.59445
C 31.67597 3.42897 -1.88466
C 31.74522 2.68474 -0.67602
C 31.23033 5.88244 -2.47166
C 31.87249 2.46026 -2.93902
O 32.00213 2.52061 -4.16103
C 31.78255 1.00337 -2.30993
C 32.94787 0.20290 -2.82355
O 34.11213 0.51143 -2.51387
O 32.48830 -0.91588 -3.41305
C 33.60753 -1.74840 -3.92886
H 30.38867 -1.12612 4.14696
H 30.82515 4.78575 6.11438
H 31.09850 6.80115 0.17315
H 30.93392 -1.57563 -0.73923
H 30.98039 -2.38097 1.96009
H 28.85111 -1.17926 0.23898
H 28.70180 -0.81598 1.97104
H 28.70214 -2.48221 1.47777
H 33.20200 -1.88032 1.24287
H 33.58276 -1.24411 -0.39891
H 32.05268 -3.62543 -0.70828
H 33.00158 -3.88848 0.71132
H 30.89980 -1.38440 6.17495
H 30.36987 -0.45393 7.53605
H 32.11819 -0.72680 7.34717
H 31.05988 1.02465 9.05694
H 32.10185 2.32964 9.86812
H 32.77008 1.15246 8.70143
H 31.24641 7.03699 4.99450
H 29.87453 7.63361 2.42181
H 29.18909 7.66047 5.70714
H 28.56006 6.14053 4.97905
H 28.54864 7.56436 4.06898
H 31.64569 9.10410 3.45738
H 31.84603 8.79874 1.74227
H 33.26640 7.81267 4.10708
H 33.98326 8.41828 2.56950
H 33.30587 6.73421 2.70872
H 31.99041 5.81790 -3.23887
H 31.28117 6.82995 -1.93928
H 30.21862 5.66280 -2.82302
H 30.82634 0.57450 -2.61211
H 33.41765 -1.91463 -4.99375
H 33.64004 -2.64194 -3.27750
H 34.59380 -1.30016 -3.95735

