%nproc=24
%mem=175gb
#p cam-b3lyp/Def2SVP td=(nstates=5)

TDDFT excited states in gaussian

0 1
Mg 0.00000 0.00000 0.00000
C -0.21700 -2.21800 2.80100
C -1.25500 2.44200 2.02600
C -0.24500 1.85000 -2.56400
C 0.14600 -2.82400 -2.03700
N -0.61700 -0.00900 2.12600
C -0.59400 -0.90800 3.10500
C -0.93600 -0.30900 4.50200
C -1.77300 0.96400 4.03200
C -1.15500 1.16800 2.66000
C -3.26300 0.68500 3.86300
C 0.34500 0.11000 5.29900
C 0.12400 0.39700 6.78700
H 1.16800 0.03300 7.73300
N -0.18500 1.96100 -0.15200
C -0.70300 2.80000 0.77700
C -0.62000 4.15600 0.19300
C -0.18700 4.01500 -1.22500
C -0.21400 2.58300 -1.38000
C -0.88700 5.40600 0.97400
C 0.18100 5.01300 -2.27700
O 0.30300 4.69000 -3.50800
C 0.31000 6.41400 -1.83700
N -0.26500 -0.41300 -2.02900
C -0.27900 0.56900 -2.93700
C -0.19600 0.02400 -4.33200
C 0.12400 -1.53300 -4.18000
C 0.08600 -1.63200 -2.63500
C -1.45100 0.20500 -5.19700
C 1.37300 -2.07000 -4.92300
C 2.62600 -1.49000 -4.30600
N 0.15000 -2.14400 0.30300
C 0.17300 -3.13600 -0.68800
C 0.17300 -4.43800 0.00400
C 0.13300 -4.11100 1.35800
C 0.08300 -2.69500 1.50200
C 0.14900 -5.71500 -0.62300
C 0.09600 -4.62900 2.71600
O 0.20800 -5.74700 3.22100
C -0.25500 -3.42800 3.70100
C 0.71700 -3.48200 4.84800
O 1.93100 -3.25500 4.66900
O 0.03800 -3.55600 6.00300
C 0.94300 -3.58300 7.18300
H -1.85900 3.22000 2.49700
H -0.21800 2.45300 -3.47400
H 0.27600 -3.74700 -2.60500
H -1.55400 -0.94900 5.13200
H -1.58500 1.83100 4.66500
H -3.48400 -0.37700 3.96900
H -3.51100 1.02700 2.85800
H -3.85200 1.30100 4.54300
H 0.66900 1.09600 4.96600
H 1.13000 -0.63900 5.18900
H -0.84400 0.02600 7.12500
H 0.06200 1.47700 6.92100
H -1.34400 5.18600 1.93800
H -1.65100 5.96300 0.43200
H 0.00700 6.02000 1.08400
H -0.63500 6.74400 -1.40500
H 0.66500 6.97000 -2.70400
H 1.04800 6.46600 -1.03600
H 0.60800 0.50100 -4.89100
H -0.69200 -2.15600 -4.54700
H -1.26700 0.74000 -6.12900
H -2.20400 0.71400 -4.59600
H -1.96700 -0.72000 -5.45300
H 1.35600 -1.75900 -5.96700
H 1.45200 -3.15700 -4.90200
H 2.71400 -0.52200 -4.79800
H 3.48700 -2.12100 -4.52900
H 2.49500 -1.30300 -3.24000
H 0.86700 -6.33300 -0.08400
H 0.40400 -5.64200 -1.68000
H -0.89100 -5.99900 -0.46300
H -1.28300 -3.58100 4.02800
H 0.69800 -4.47800 7.75500
H 0.83300 -2.61900 7.68000
H 2.00000 -3.75400 6.97600
Mg 15.76240 1.41267 1.20487
C 14.14378 3.68933 3.45785
C 17.70026 0.42486 3.83233
C 17.50548 -0.27185 -0.84245
C 14.52709 3.34749 -1.41738
N 15.81950 2.04839 3.32262
C 15.11542 2.87710 4.07883
C 15.41720 2.77516 5.59807
C 16.90146 2.16870 5.50824
C 16.79884 1.47099 4.15349
C 17.98203 3.23327 5.41660
C 14.43995 1.79497 6.33714
C 14.47604 1.88123 7.86456
H 13.23069 1.68780 8.60224
N 17.01958 -0.08999 1.52126
C 17.70242 -0.35473 2.65480
C 18.50464 -1.55459 2.37030
C 18.36522 -1.88020 0.92488
C 17.62514 -0.72260 0.46409
C 19.23737 -2.31527 3.43702
C 18.83306 -3.03529 0.09236
O 18.80605 -2.99672 -1.18851
C 19.41041 -4.17566 0.81881
N 16.16413 1.63675 -0.82263
C 16.91025 0.73422 -1.48343
C 16.83444 0.95161 -2.97588
C 15.68520 2.04228 -3.19334
C 15.34185 2.34563 -1.71838
C 18.12289 1.43004 -3.64474
C 14.52877 1.66324 -4.15857
C 13.70543 0.54390 -3.56312
N 14.40689 3.08371 1.00926
C 14.04900 3.75713 -0.17923
C 13.19183 4.89657 0.20723
C 13.12882 4.81994 1.60675
C 13.90923 3.72300 2.06193
C 12.63242 5.85619 -0.68289
C 12.58821 5.42390 2.80327
O 11.78729 6.32896 3.03381
C 13.32387 4.79441 4.06380
C 12.27456 4.41586 5.07284
O 11.45003 3.51948 4.82130
O 12.55151 5.01821 6.24367
C 11.54471 4.66465 7.27961
H 18.51028 0.20593 4.52862
H 17.99879 -0.88533 -1.59992
H 14.02248 3.93992 -2.18358
H 15.43396 3.72304 6.12248
H 17.08035 1.44364 6.29796
H 17.56423 4.22307 5.30761
H 18.57594 2.97570 4.54944
H 18.65564 3.16156 6.27534
H 14.79336 0.76507 6.19872
H 13.43329 1.92800 5.99138
H 14.99390 2.78255 8.21439
H 15.08543 1.05756 8.24434
H 19.29188 -1.74482 4.37245
H 20.27930 -2.40109 3.11011
H 18.83236 -3.31737 3.59337
H 20.26250 -3.83733 1.40356
H 19.60366 -4.93735 0.06095
H 18.66712 -4.54845 1.53237
H 16.55331 0.03841 -3.48591
H 16.08341 2.97399 -3.62132
H 18.46592 0.76331 -4.45830
H 18.88667 1.52641 -2.88455
H 18.08187 2.43565 -4.05980
H 14.93114 1.28485 -5.10148
H 13.87569 2.49576 -4.39812
H 14.27362 -0.35117 -3.83352
H 12.70938 0.52632 -4.00085
H 13.68956 0.60617 -2.46880
H 11.60820 6.01070 -0.37050
H 12.68728 5.51955 -1.71606
H 13.29250 6.70671 -0.49269
H 14.01178 5.54693 4.45120
H 11.13598 5.60507 7.66201
H 12.07441 4.01511 8.00160
H 10.64345 4.16038 6.95113

