%nproc=24
%mem=175gb
#p cam-b3lyp/Def2SVP td=(nstates=5)

TDDFT excited states in gaussian

0 1
Mg 31.54058 2.83625 2.38888
C 31.28557 5.43782 -0.06996
C 31.05076 0.60198 -0.14147
C 31.31046 0.55447 4.58158
C 30.87010 5.25068 4.81102
N 31.22223 3.10699 0.21687
C 31.20640 4.13871 -0.61357
C 31.18052 3.75380 -2.11714
C 30.53693 2.28899 -1.97932
C 30.99039 1.95536 -0.55956
C 29.01753 2.29422 -2.00662
C 32.61791 3.69306 -2.74342
C 32.65117 3.62745 -4.27193
H 33.73185 4.31355 -4.97469
N 31.71474 0.86689 2.21615
C 31.50030 0.12498 1.10942
C 31.74135 -1.27054 1.50762
C 31.95489 -1.30802 2.97994
C 31.64083 0.06351 3.32685
C 31.83148 -2.39527 0.51753
C 32.36059 -2.40100 3.92174
O 32.25315 -2.26948 5.19217
C 32.79945 -3.66394 3.31029
N 30.93987 2.84882 4.37919
C 30.98455 1.72885 5.12189
C 30.77091 2.03567 6.58497
C 30.81434 3.63016 6.70036
C 30.96304 3.98812 5.20532
C 29.46637 1.51726 7.18981
C 31.82808 4.23537 7.70968
C 33.24138 3.97749 7.23908
N 31.32872 4.98610 2.42517
C 31.02245 5.79430 3.54190
C 30.87062 7.17863 3.04893
C 31.07804 7.07525 1.66518
C 31.32064 5.71892 1.31730
C 30.53208 8.31149 3.84149
C 31.13642 7.80350 0.41821
O 31.09553 8.99227 0.10375
C 31.14820 6.75702 -0.77809
C 32.23909 7.15620 -1.73368
O 33.43194 7.11388 -1.38450
O 31.71331 7.31218 -2.96234
C 32.75856 7.69753 -3.94761
H 30.67960 -0.16741 -0.81909
H 31.32668 -0.17660 5.39322
H 30.75782 6.07606 5.51728
H 30.54936 4.38054 -2.73570
H 30.97577 1.59605 -2.69249
H 28.61783 3.29734 -1.99545
H 28.70558 1.75279 -1.12311
H 28.65384 1.71418 -2.85962
H 33.07219 2.72302 -2.50380
H 33.21650 4.51590 -2.40393
H 31.68133 3.88163 -4.71661
H 32.81960 2.59009 -4.57115
H 31.46826 -2.09044 -0.47169
H 31.12240 -3.16453 0.84204
H 32.83045 -2.83376 0.46796
H 32.00152 -4.05953 2.68636
H 33.13292 -4.29004 4.14016
H 33.64497 -3.45543 2.64528
H 31.56765 1.61786 7.18808
H 29.84806 4.04148 7.02738
H 29.62252 0.85739 8.06403
H 28.91363 0.99999 6.41686
H 28.76300 2.28796 7.50041
H 31.73102 3.74737 8.68261
H 31.69559 5.30031 7.86891
H 33.43824 2.96153 7.59427
H 33.93011 4.69202 7.68533
H 33.29464 3.96006 6.14431
H 31.17955 9.11811 3.52424
H 30.64682 8.10263 4.90308
H 29.48370 8.44054 3.55949
H 30.16360 6.78383 -1.24651
H 32.42509 8.62654 -4.42029
H 32.88927 6.81694 -4.60430
H 33.72710 7.99264 -3.56123

