%nproc=24
%mem=175gb
#p cam-b3lyp/Def2SVP td=(nstates=5)

TDDFT excited states in gaussian

0 1
Mg 15.77369 1.41891 1.20522
C 13.96249 -0.23628 3.82419
C 16.19596 4.03410 3.35396
C 16.97812 3.08252 -1.21328
C 14.25544 -0.77206 -1.03984
N 15.11810 1.73901 3.29328
C 14.48921 1.01495 4.20684
C 14.49086 1.63336 5.63061
C 14.69570 3.17327 5.22370
C 15.41330 2.98012 3.88937
C 13.39000 3.90546 4.96222
C 15.68028 1.10823 6.50899
C 15.56841 1.42909 8.00107
H 16.06673 0.44977 8.96287
N 16.89779 3.05444 1.20520
C 16.96345 3.99671 2.16910
C 17.91973 5.00344 1.68310
C 18.28843 4.66239 0.28222
C 17.36637 3.57456 0.02434
C 18.45256 6.10569 2.55175
C 19.29446 5.23075 -0.67228
O 19.28028 4.93650 -1.91970
C 20.23844 6.21399 -0.12125
N 15.47926 1.33195 -0.85101
C 16.16744 2.13385 -1.68245
C 15.99571 1.70515 -3.12020
C 15.24063 0.29661 -3.06126
C 15.01739 0.19276 -1.53654
C 15.21006 2.66655 -4.01174
C 15.91682 -0.89552 -3.79218
C 17.20286 -1.26869 -3.09058
N 14.51070 -0.32809 1.34979
C 13.96719 -1.07826 0.28400
C 13.08215 -2.10096 0.87833
C 13.15480 -1.85817 2.25828
C 14.00794 -0.74879 2.50509
C 12.31026 -3.05429 0.15620
C 12.69542 -2.28141 3.56156
O 12.02433 -3.22273 3.98262
C 13.09830 -1.17062 4.62468
C 13.72158 -1.86256 5.80589
O 14.80316 -2.46482 5.68723
O 13.05353 -1.51745 6.92167
C 13.64138 -2.17011 8.12179
H 16.19011 4.99659 3.86626
H 17.45335 3.55219 -2.07760
H 13.82264 -1.55500 -1.66623
H 13.56411 1.51377 6.17889
H 15.34023 3.68672 5.93244
H 12.54263 3.23624 4.97814
H 13.49682 4.35744 3.98480
H 13.27499 4.73430 5.66659
H 16.58608 1.67677 6.26195
H 15.81534 0.05250 6.37554
H 14.55979 1.75995 8.27704
H 16.20251 2.29192 8.21896
H 17.87558 6.20101 3.47987
H 18.27125 7.04680 2.02135
H 19.52311 6.00952 2.74501
H 19.68475 7.05180 0.29584
H 20.93415 6.43758 -0.93234
H 20.78107 5.75026 0.71009
H 16.95686 1.56880 -3.60052
H 14.24325 0.34938 -3.52202
H 15.77614 2.99632 -4.90329
H 14.91068 3.51793 -3.41503
H 14.25424 2.28775 -4.36969
H 16.19066 -0.60922 -4.81061
H 15.28365 -1.77358 -3.86372
H 17.92473 -0.55806 -3.50409
H 17.48187 -2.29461 -3.32226
H 17.13300 -1.07838 -2.01329
H 12.42081 -3.99908 0.67162
H 12.63439 -3.12549 -0.87997
H 11.31611 -2.60826 0.24559
H 12.18920 -0.63346 4.89773
H 12.83321 -2.71887 8.61515
H 14.12346 -1.35783 8.69761
H 14.36484 -2.96035 7.95876

