%nproc=24
%mem=175gb
#p cam-b3lyp/Def2SVP td=(nstates=5)

TDDFT excited states in gaussian

0 1
Mg 0.00000 0.00000 0.00000
C -0.21700 -2.21800 2.80100
C -1.25500 2.44200 2.02600
C -0.24500 1.85000 -2.56400
C 0.14600 -2.82400 -2.03700
N -0.61700 -0.00900 2.12600
C -0.59400 -0.90800 3.10500
C -0.93600 -0.30900 4.50200
C -1.77300 0.96400 4.03200
C -1.15500 1.16800 2.66000
C -3.26300 0.68500 3.86300
C 0.34500 0.11000 5.29900
C 0.12400 0.39700 6.78700
H 1.16800 0.03300 7.73300
N -0.18500 1.96100 -0.15200
C -0.70300 2.80000 0.77700
C -0.62000 4.15600 0.19300
C -0.18700 4.01500 -1.22500
C -0.21400 2.58300 -1.38000
C -0.88700 5.40600 0.97400
C 0.18100 5.01300 -2.27700
O 0.30300 4.69000 -3.50800
C 0.31000 6.41400 -1.83700
N -0.26500 -0.41300 -2.02900
C -0.27900 0.56900 -2.93700
C -0.19600 0.02400 -4.33200
C 0.12400 -1.53300 -4.18000
C 0.08600 -1.63200 -2.63500
C -1.45100 0.20500 -5.19700
C 1.37300 -2.07000 -4.92300
C 2.62600 -1.49000 -4.30600
N 0.15000 -2.14400 0.30300
C 0.17300 -3.13600 -0.68800
C 0.17300 -4.43800 0.00400
C 0.13300 -4.11100 1.35800
C 0.08300 -2.69500 1.50200
C 0.14900 -5.71500 -0.62300
C 0.09600 -4.62900 2.71600
O 0.20800 -5.74700 3.22100
C -0.25500 -3.42800 3.70100
C 0.71700 -3.48200 4.84800
O 1.93100 -3.25500 4.66900
O 0.03800 -3.55600 6.00300
C 0.94300 -3.58300 7.18300
H -1.85900 3.22000 2.49700
H -0.21800 2.45300 -3.47400
H 0.27600 -3.74700 -2.60500
H -1.55400 -0.94900 5.13200
H -1.58500 1.83100 4.66500
H -3.48400 -0.37700 3.96900
H -3.51100 1.02700 2.85800
H -3.85200 1.30100 4.54300
H 0.66900 1.09600 4.96600
H 1.13000 -0.63900 5.18900
H -0.84400 0.02600 7.12500
H 0.06200 1.47700 6.92100
H -1.34400 5.18600 1.93800
H -1.65100 5.96300 0.43200
H 0.00700 6.02000 1.08400
H -0.63500 6.74400 -1.40500
H 0.66500 6.97000 -2.70400
H 1.04800 6.46600 -1.03600
H 0.60800 0.50100 -4.89100
H -0.69200 -2.15600 -4.54700
H -1.26700 0.74000 -6.12900
H -2.20400 0.71400 -4.59600
H -1.96700 -0.72000 -5.45300
H 1.35600 -1.75900 -5.96700
H 1.45200 -3.15700 -4.90200
H 2.71400 -0.52200 -4.79800
H 3.48700 -2.12100 -4.52900
H 2.49500 -1.30300 -3.24000
H 0.86700 -6.33300 -0.08400
H 0.40400 -5.64200 -1.68000
H -0.89100 -5.99900 -0.46300
H -1.28300 -3.58100 4.02800
H 0.69800 -4.47800 7.75500
H 0.83300 -2.61900 7.68000
H 2.00000 -3.75400 6.97600
Mg 10.50247 0.94478 0.80476
C 10.98533 3.57166 3.20172
C 10.69447 -1.25749 3.40240
C 10.53074 -1.40900 -1.32277
C 11.48090 3.20439 -1.66153
N 10.80238 1.24042 2.97614
C 10.91214 2.28730 3.78009
C 10.86457 1.94408 5.29319
C 11.34881 0.41529 5.20832
C 10.89196 0.09273 3.78708
C 12.85895 0.25793 5.27189
C 9.41615 2.05575 5.88618
C 9.34379 2.03692 7.41463
H 8.32905 2.85460 8.07353
N 10.11284 -0.98884 1.02354
C 10.22246 -1.71823 2.15369
C 9.84042 -3.09036 1.78562
C 9.65515 -3.14586 0.31005
C 10.12287 -1.82628 -0.06417
C 9.60839 -4.17072 2.80169
C 9.15361 -4.21484 -0.61297
O 9.30139 -4.13124 -1.88340
C 8.56802 -5.40567 0.01987
N 11.14282 0.83698 -1.17025
C 10.99300 -0.29204 -1.88494
C 11.26934 -0.05104 -3.34985
C 11.40096 1.53501 -3.50696
C 11.26036 1.94859 -2.02555
C 12.52264 -0.72341 -3.90979
C 10.48008 2.21720 -4.55543
C 9.03758 2.12600 -4.11240
N 10.94620 3.05754 0.71862
C 11.36150 3.79655 -0.41074
C 11.65166 5.16979 0.05019
C 11.40516 5.12808 1.43076
C 11.01010 3.81596 1.80728
C 12.12730 6.23706 -0.76272
C 11.39958 5.89301 2.65696
O 11.56210 7.07883 2.94182
C 11.24954 4.88776 3.87899
C 10.18831 5.42848 4.79764
O 9.00550 5.50487 4.42116
O 10.70185 5.56137 6.03416
C 9.68385 6.08427 6.98393
H 10.96593 -2.04305 4.10816
H 10.45269 -2.15652 -2.11561
H 11.69660 3.99282 -2.38576
H 11.54660 2.51641 5.91048
H 10.82270 -0.20622 5.92825
H 13.36489 1.21157 5.24467
H 13.12910 -0.33841 4.41023
H 13.13976 -0.33373 6.14791
H 8.86483 1.13384 5.66061
H 8.91730 2.92834 5.51153
H 10.32585 2.19771 7.87579
H 9.05795 1.03246 7.73615
H 9.98150 -3.87913 3.79122
H 10.23684 -5.02053 2.51403
H 8.56706 -4.49773 2.83849
H 9.30518 -5.86712 0.67265
H 8.18639 -6.01527 -0.80148
H 7.73617 -5.08895 0.65888
H 10.44499 -0.39751 -3.96100
H 12.41272 1.83077 -3.82113
H 12.31454 -1.38688 -4.77036
H 12.99983 -1.27525 -3.11086
H 13.31160 -0.04177 -4.22304
H 10.54430 1.69454 -5.51296
H 10.73024 3.25684 -4.73860
H 8.73958 1.12755 -4.44612
H 8.43968 2.89765 -4.59314
H 8.95969 2.14505 -3.01913
H 11.56428 7.11717 -0.48180
H 12.01305 6.01212 -1.82107
H 13.17731 6.26052 -0.45907
H 12.22119 4.82168 4.37003
H 10.10576 6.98492 7.44056
H 9.44492 5.24157 7.65958
H 8.76125 6.47085 6.56702

