%nproc=24
%mem=175gb
#p cam-b3lyp/Def2SVP td=(nstates=5)

TDDFT excited states in gaussian

0 1
Mg 10.51961 0.95010 0.79386
C 13.01981 -1.20596 2.20080
C 12.18593 3.56374 2.21754
C 8.09922 2.82178 -0.04635
C 8.47911 -1.85672 0.47159
N 12.35426 1.04027 2.02600
C 13.25416 0.16332 2.44492
C 14.51376 0.79533 3.09572
C 13.87305 2.19647 3.54868
C 12.75371 2.29904 2.51464
C 13.24357 2.15147 4.93109
C 15.67868 1.00281 2.06523
C 17.03846 1.32615 2.68830
H 18.24054 0.80027 2.04726
N 10.42367 2.92463 0.61897
C 11.19115 3.83593 1.25284
C 10.71190 5.15078 0.79933
C 9.49134 4.94570 -0.02703
C 9.27404 3.52672 0.17135
C 11.44407 6.42849 1.09054
C 8.65050 5.87563 -0.84827
O 7.49862 5.52869 -1.29057
C 9.17418 7.23587 -1.04060
N 8.49689 0.58456 0.48190
C 7.67275 1.56408 0.07051
C 6.33303 1.00885 -0.35052
C 6.51187 -0.58030 -0.36479
C 7.96141 -0.67655 0.15957
C 5.14901 1.37948 0.54230
C 6.15266 -1.31712 -1.68416
C 7.13662 -0.94235 -2.76895
N 10.75009 -1.18035 1.06974
C 9.76033 -2.17388 0.90434
C 10.36025 -3.45911 1.31753
C 11.66039 -3.11787 1.71960
C 11.85027 -1.71580 1.58680
C 9.69768 -4.71879 1.33555
C 12.91188 -3.62342 2.23622
O 13.36900 -4.74283 2.46358
C 13.80615 -2.39032 2.69027
C 15.18971 -2.59058 2.13515
O 15.38680 -2.57287 0.90737
O 16.07908 -2.55247 3.14408
C 17.46706 -2.73544 2.64223
H 12.50061 4.42517 2.80727
H 7.26568 3.40568 -0.44351
H 7.93996 -2.79229 0.30823
H 14.89389 0.26366 3.95978
H 14.58082 3.01227 3.42664
H 13.22662 1.14957 5.33365
H 12.23610 2.52682 4.80793
H 13.74827 2.85614 5.59822
H 15.50207 1.93142 1.50734
H 15.77081 0.15238 1.41800
H 17.05706 1.12233 3.76582
H 17.20574 2.40358 2.61640
H 12.21552 6.28433 1.85702
H 10.72401 7.11095 1.55489
H 11.84621 6.89809 0.19031
H 9.31891 7.70749 -0.07153
H 8.47841 7.72256 -1.72684
H 10.16282 7.16730 -1.50803
H 6.07234 1.34212 -1.34755
H 5.87315 -1.06896 0.38559
H 4.33194 1.88677 -0.00461
H 5.51156 2.00327 1.34851
H 4.69729 0.54719 1.07938
H 5.16722 -1.00320 -2.03704
H 6.12963 -2.39707 -1.58329
H 6.73900 0.00449 -3.14641
H 7.15500 -1.70144 -3.54837
H 8.12808 -0.73903 -2.34786
H 10.39090 -5.44109 0.92539
H 8.77077 -4.68866 0.76661
H 9.51750 -4.82906 2.40823
H 13.80201 -2.36655 3.78068
H 17.89576 -3.58080 3.18928
H 17.96106 -1.75329 2.76512
H 17.59005 -3.06301 1.61655

