%nproc=24
%mem=175gb
#p cam-b3lyp/Def2SVP td=(nstates=5)

TDDFT excited states in gaussian

0 1
Mg 8.94204 0.80790 0.67247
C 11.61967 -1.38424 1.62318
C 10.89612 3.40261 1.71346
C 6.44362 2.72155 0.26834
C 6.82344 -1.95691 0.78665
N 10.97670 0.87369 1.53738
C 11.92209 -0.01738 1.79539
C 13.29342 0.59509 2.18771
C 12.77629 2.01604 2.72841
C 11.48500 2.12968 1.92073
C 12.41665 2.00349 4.20483
C 14.24807 0.76287 0.95381
C 15.70661 1.06418 1.30546
H 16.75665 0.50322 0.45976
N 8.85317 2.78157 0.48458
C 9.74344 3.68396 0.94763
C 9.21312 5.00297 0.56930
C 7.85544 4.81407 -0.01013
C 7.65184 3.40304 0.24991
C 10.01149 6.26786 0.69609
C 6.89358 5.75142 -0.67526
O 5.67267 5.42431 -0.88790
C 7.39806 7.09701 -0.98573
N 6.89002 0.48328 0.75129
C 6.02242 1.47532 0.48471
C 4.61702 0.94443 0.33175
C 4.75924 -0.64835 0.31167
C 6.27930 -0.76980 0.55680
C 3.62896 1.35316 1.42402
C 4.14467 -1.39453 -0.90414
C 4.91465 -1.05623 -2.16035
N 9.17896 -1.32328 0.93703
C 8.15672 -2.29668 0.97715
C 8.79856 -3.58930 1.29277
C 10.15740 -3.27171 1.43823
C 10.34606 -1.87610 1.24802
C 8.12692 -4.83359 1.45634
C 11.47359 -3.79802 1.71992
O 11.94353 -4.92418 1.87692
C 12.46084 -2.57916 1.97705
C 13.71153 -2.81751 1.17613
O 13.67503 -2.82056 -0.06696
O 14.77499 -2.78573 1.99979
C 16.04034 -3.00618 1.25005
H 11.33246 4.26462 2.21885
H 5.56181 3.31849 0.02432
H 6.24522 -2.88237 0.74335
H 13.81858 0.06668 2.97432
H 13.46423 2.81421 2.46188
H 12.45617 1.00767 4.62068
H 11.41142 2.39946 4.26611
H 13.05109 2.70560 4.75334
H 13.98790 1.68766 0.42294
H 14.20065 -0.09795 0.31557
H 15.92312 0.87439 2.36378
H 15.87822 2.13658 1.18490
H 10.91013 6.11682 1.30686
H 9.40468 6.97229 1.27526
H 10.24657 6.71636 -0.27151
H 7.73116 7.57817 -0.06922
H 6.59543 7.58984 -1.53779
H 8.27992 7.00025 -1.62883
H 4.18037 1.27009 -0.60440
H 4.26335 -1.11264 1.17674
H 2.73374 1.87115 1.03117
H 4.14834 1.97944 2.13716
H 3.27003 0.53836 2.05050
H 3.11678 -1.06351 -1.07153
H 4.12010 -2.47225 -0.78211
H 4.47165 -0.10590 -2.47293
H 4.77178 -1.82586 -2.91618
H 5.97126 -0.86939 -1.93601
H 8.71676 -5.57652 0.93611
H 7.11047 -4.79045 1.07066
H 8.14912 -4.92551 2.54552
H 12.66185 -2.54077 3.04836
H 16.54765 -3.85349 1.72163
H 16.56752 -2.03370 1.26125
H 15.96233 -3.35006 0.22530

