%nproc=24
%mem=175gb
#p cam-b3lyp/Def2SVP td=(nstates=5)

TDDFT excited states in gaussian

0 1
Mg 13.14794 1.18691 0.99525
C 15.38762 -0.94437 2.81747
C 14.45956 3.80731 2.74103
C 10.88679 3.02567 -0.25918
C 11.26683 -1.65285 0.25842
N 14.71684 1.29125 2.55085
C 15.54160 0.42476 3.11946
C 16.64263 1.06967 4.00342
C 15.89743 2.45013 4.34675
C 14.98961 2.54888 3.12251
C 15.02129 2.36911 5.58577
C 17.97506 1.31740 3.21269
C 19.18653 1.65616 4.08410
H 20.49880 1.16477 3.67305
N 13.04259 3.16195 0.83180
C 13.65730 4.07683 1.61052
C 13.24238 5.38980 1.09272
C 12.20308 5.17547 0.04934
C 11.98407 3.74933 0.18449
C 13.87845 6.67622 1.53315
C 11.51051 6.10300 -0.90262
O 10.46987 5.74155 -1.55779
C 12.03058 7.47623 -0.97510
N 11.22809 0.78777 0.30443
C 10.47404 1.75814 -0.24120
C 9.24958 1.18446 -0.91350
C 9.46321 -0.40045 -0.91516
C 10.79064 -0.47770 -0.12944
C 7.91134 1.51666 -0.25386
C 9.37397 -1.12118 -2.28820
C 10.53515 -0.70879 -3.16399
N 13.36996 -0.94313 1.28104
C 12.45103 -1.95261 0.91963
C 12.99135 -3.23294 1.42087
C 14.18525 -2.87362 2.06428
C 14.36544 -1.46605 1.98817
C 12.36531 -4.50532 1.29745
C 15.32874 -3.36372 2.79977
O 15.75994 -4.47784 3.09392
C 16.09448 -2.12159 3.42995
C 17.56165 -2.28545 3.14169
O 17.98479 -2.24273 1.97305
O 18.24520 -2.24758 4.30001
C 19.70634 -2.39498 4.06512
H 14.63897 4.66436 3.39077
H 10.12963 3.60013 -0.79787
H 10.78875 -2.59571 -0.01568
H 16.86589 0.53061 4.91630
H 16.59722 3.28145 4.37058
H 14.95151 1.36027 5.96460
H 14.04664 2.72698 5.28077
H 15.37630 3.07178 6.34509
H 17.88548 2.25191 2.64400
H 18.20568 0.48021 2.58296
H 19.00748 1.43417 5.14316
H 19.34032 2.73770 4.05924
H 14.49568 6.53378 2.42878
H 13.06916 7.33651 1.86320
H 14.43157 7.16897 0.73071
H 11.98070 7.93376 0.01011
H 11.46504 7.96115 -1.77316
H 13.09056 7.43487 -1.24959
H 9.17293 1.52979 -1.93721
H 8.70625 -0.91425 -0.30453
H 7.20011 2.01743 -0.93756
H 8.10249 2.13333 0.61431
H 7.38562 0.66665 0.17777
H 8.46535 -0.82033 -2.81550
H 9.35647 -2.20296 -2.20785
H 10.19432 0.23656 -3.59670
H 10.71608 -1.45381 -3.93616
H 11.42541 -0.49364 -2.56167
H 13.13897 -5.20689 1.01506
H 11.56094 -4.48329 0.56513
H 11.98987 -4.63755 2.31570
H 15.88564 -2.11673 4.50044
H 20.04366 -3.24121 4.67157
H 20.14662 -1.40574 4.29160
H 20.02654 -2.70236 3.07646

