%nproc=24
%mem=175gb
#p cam-b3lyp/Def2SVP td=(nstates=5)

TDDFT excited states in gaussian

0 1
Mg 0.00000 0.00000 0.00000
C -0.21700 -2.21800 2.80100
C -1.25500 2.44200 2.02600
C -0.24500 1.85000 -2.56400
C 0.14600 -2.82400 -2.03700
N -0.61700 -0.00900 2.12600
C -0.59400 -0.90800 3.10500
C -0.93600 -0.30900 4.50200
C -1.77300 0.96400 4.03200
C -1.15500 1.16800 2.66000
C -3.26300 0.68500 3.86300
C 0.34500 0.11000 5.29900
C 0.12400 0.39700 6.78700
H 1.16800 0.03300 7.73300
N -0.18500 1.96100 -0.15200
C -0.70300 2.80000 0.77700
C -0.62000 4.15600 0.19300
C -0.18700 4.01500 -1.22500
C -0.21400 2.58300 -1.38000
C -0.88700 5.40600 0.97400
C 0.18100 5.01300 -2.27700
O 0.30300 4.69000 -3.50800
C 0.31000 6.41400 -1.83700
N -0.26500 -0.41300 -2.02900
C -0.27900 0.56900 -2.93700
C -0.19600 0.02400 -4.33200
C 0.12400 -1.53300 -4.18000
C 0.08600 -1.63200 -2.63500
C -1.45100 0.20500 -5.19700
C 1.37300 -2.07000 -4.92300
C 2.62600 -1.49000 -4.30600
N 0.15000 -2.14400 0.30300
C 0.17300 -3.13600 -0.68800
C 0.17300 -4.43800 0.00400
C 0.13300 -4.11100 1.35800
C 0.08300 -2.69500 1.50200
C 0.14900 -5.71500 -0.62300
C 0.09600 -4.62900 2.71600
O 0.20800 -5.74700 3.22100
C -0.25500 -3.42800 3.70100
C 0.71700 -3.48200 4.84800
O 1.93100 -3.25500 4.66900
O 0.03800 -3.55600 6.00300
C 0.94300 -3.58300 7.18300
H -1.85900 3.22000 2.49700
H -0.21800 2.45300 -3.47400
H 0.27600 -3.74700 -2.60500
H -1.55400 -0.94900 5.13200
H -1.58500 1.83100 4.66500
H -3.48400 -0.37700 3.96900
H -3.51100 1.02700 2.85800
H -3.85200 1.30100 4.54300
H 0.66900 1.09600 4.96600
H 1.13000 -0.63900 5.18900
H -0.84400 0.02600 7.12500
H 0.06200 1.47700 6.92100
H -1.34400 5.18600 1.93800
H -1.65100 5.96300 0.43200
H 0.00700 6.02000 1.08400
H -0.63500 6.74400 -1.40500
H 0.66500 6.97000 -2.70400
H 1.04800 6.46600 -1.03600
H 0.60800 0.50100 -4.89100
H -0.69200 -2.15600 -4.54700
H -1.26700 0.74000 -6.12900
H -2.20400 0.71400 -4.59600
H -1.96700 -0.72000 -5.45300
H 1.35600 -1.75900 -5.96700
H 1.45200 -3.15700 -4.90200
H 2.71400 -0.52200 -4.79800
H 3.48700 -2.12100 -4.52900
H 2.49500 -1.30300 -3.24000
H 0.86700 -6.33300 -0.08400
H 0.40400 -5.64200 -1.68000
H -0.89100 -5.99900 -0.46300
H -1.28300 -3.58100 4.02800
H 0.69800 -4.47800 7.75500
H 0.83300 -2.61900 7.68000
H 2.00000 -3.75400 6.97600
Mg 31.53552 2.84675 2.40169
C 32.65346 1.02570 5.28493
C 29.24333 4.35474 4.42812
C 30.23309 4.12872 -0.19208
C 33.08944 0.42156 0.43967
N 31.10257 2.63467 4.56035
C 31.63317 1.95767 5.56756
C 31.09217 2.35685 6.96668
C 29.67321 2.95697 6.51358
C 30.02917 3.37709 5.08899
C 28.57268 1.91146 6.44233
C 31.98097 3.44671 7.66257
C 31.69148 3.65882 9.15017
H 32.80718 3.97258 10.03855
N 30.31660 4.40125 2.21105
C 29.47096 4.89114 3.14173
C 28.78419 6.02517 2.50416
C 29.17351 6.06217 1.06827
C 29.92296 4.82603 0.96642
C 27.92396 6.98936 3.26822
C 28.90374 7.04092 -0.03421
O 29.13802 6.75432 -1.26133
C 28.27038 8.30918 0.35547
N 31.46060 2.23994 0.41460
C 30.87649 3.00849 -0.52139
C 31.18494 2.50471 -1.91115
C 32.30096 1.37517 -1.72083
C 32.38358 1.35836 -0.17866
C 30.00192 1.92539 -2.68655
C 33.61642 1.54215 -2.52974
C 34.38369 2.74301 -2.02514
N 32.82355 1.14899 2.75758
C 33.33850 0.25252 1.79568
C 34.06561 -0.80331 2.52981
C 33.90245 -0.45774 3.87979
C 33.11129 0.71843 3.98081
C 34.71669 -1.92574 1.94468
C 34.21067 -0.82642 5.24280
O 34.91902 -1.68171 5.77236
C 33.30959 0.04670 6.21856
C 34.19656 0.59766 7.30126
O 35.09291 1.41556 7.02883
O 33.70345 0.23806 8.50038
C 34.54294 0.77038 9.60660
H 28.34170 4.71686 4.92290
H 29.90012 4.59114 -1.12417
H 33.68375 -0.31583 -0.10413
H 30.94470 1.52901 7.64984
H 29.40233 3.82404 7.11039
H 28.95502 0.91305 6.59444
H 28.14157 2.00503 5.45419
H 27.77188 2.15859 7.14517
H 31.70447 4.43549 7.27450
H 33.02313 3.23380 7.52401
H 31.08101 2.85044 9.57064
H 31.06814 4.54970 9.25881
H 27.69006 6.61201 4.27136
H 26.95482 7.02605 2.75902
H 28.34525 7.99645 3.29921
H 27.31897 8.10371 0.84031
H 28.24021 8.91233 -0.55402
H 28.90386 8.80187 1.10151
H 31.58892 3.29728 -2.52900
H 31.93415 0.38434 -2.02669
H 29.82875 2.42688 -3.65742
H 29.12037 1.98993 -2.06265
H 30.06229 0.85789 -2.89145
H 33.39220 1.73662 -3.58144
H 34.25945 0.66911 -2.49365
H 33.91070 3.57722 -2.55188
H 35.43761 2.66016 -2.28286
H 34.21737 2.89387 -0.95218
H 35.66748 -2.03236 2.44978
H 34.84767 -1.79503 0.87252
H 33.99461 -2.71306 2.17704
H 32.53250 -0.60582 6.61847
H 34.83833 -0.08417 10.22318
H 33.93386 1.55560 10.09261
H 35.50879 1.18756 9.34670

