%nproc=24
%mem=175gb
#p cam-b3lyp/Def2SVP td=(nstates=5)

TDDFT excited states in gaussian

0 1
Mg 13.13033 1.18086 1.00443
C 13.46120 3.84610 3.38478
C 13.47596 -0.99061 3.61209
C 13.29398 -1.17820 -1.11111
C 13.94996 3.48387 -1.47953
N 13.42396 1.50675 3.17234
C 13.47241 2.56290 3.97019
C 13.45553 2.22572 5.48531
C 14.03448 0.72996 5.40525
C 13.59039 0.37147 3.98859
C 15.55189 0.66823 5.46013
C 12.00651 2.24935 6.08681
C 11.94457 2.23445 7.61576
H 10.88433 2.99033 8.27681
N 12.86444 -0.77220 1.23558
C 13.02646 -1.48700 2.36876
C 12.72932 -2.88245 2.01015
C 12.53915 -2.95764 0.53607
C 12.92067 -1.61335 0.15215
C 12.57178 -3.96964 3.03319
C 12.10038 -4.06112 -0.37827
O 12.23504 -3.97541 -1.65002
C 11.59465 -5.28291 0.26434
N 13.76444 1.10264 -0.97399
C 13.68170 -0.03750 -1.68191
C 13.93361 0.21231 -3.14974
C 13.96424 1.80261 -3.31583
C 13.80671 2.21470 -1.83571
C 15.22338 -0.38299 -3.71409
C 12.99604 2.41973 -4.36197
C 11.56480 2.24045 -3.90943
N 13.43973 3.31683 0.90466
C 13.80098 4.07425 -0.23107
C 14.00690 5.46554 0.22096
C 13.77173 5.41604 1.60325
C 13.46225 4.08377 1.98898
C 14.40960 6.55611 -0.60039
C 13.72533 6.18586 2.82552
O 13.81460 7.38111 3.10325
C 13.64611 5.17992 4.05361
C 12.55844 5.65790 4.97612
O 11.37094 5.65768 4.60670
O 13.06995 5.82965 6.20869
C 12.02673 6.29274 7.16214
H 13.80050 -1.75363 4.32015
H 13.25841 -1.93351 -1.89960
H 14.11131 4.28030 -2.20915
H 14.10386 2.84321 6.09535
H 13.55282 0.08058 6.13165
H 15.99665 1.65164 5.42483
H 15.85389 0.08531 4.59987
H 15.87457 0.10025 6.33740
H 11.51296 1.29337 5.86944
H 11.45153 3.08676 5.71082
H 12.91729 2.45923 8.06990
H 11.72441 1.21579 7.94422
H 12.93169 -3.64970 4.01884
H 13.25073 -4.77982 2.74596
H 11.55332 -4.36128 3.07821
H 12.36325 -5.69347 0.91484
H 11.24725 -5.91983 -0.55145
H 10.74834 -5.01560 0.90693
H 13.12908 -0.18869 -3.75392
H 14.95350 2.15967 -3.63786
H 15.05232 -1.06298 -4.56992
H 15.73909 -0.89932 -2.91535
H 15.96601 0.34517 -4.03579
H 13.08733 1.89687 -5.31719
H 13.17919 3.47202 -4.55205
H 11.32823 1.22341 -4.23614
H 10.91669 2.97031 -4.39036
H 11.49237 2.26060 -2.81581
H 13.79400 7.40061 -0.32047
H 14.30344 6.31858 -1.65684
H 15.45784 6.64722 -0.30347
H 14.62289 5.17779 4.53887
H 12.39384 7.22064 7.61149
H 11.84532 5.44042 7.84360
H 11.07917 6.61823 6.74906

