%nproc=24
%mem=175gb
#p cam-b3lyp/Def2SVP td=(nstates=5)

TDDFT excited states in gaussian

0 1
Mg 0.00000 0.00000 0.00000
C -0.21700 -2.21800 2.80100
C -1.25500 2.44200 2.02600
C -0.24500 1.85000 -2.56400
C 0.14600 -2.82400 -2.03700
N -0.61700 -0.00900 2.12600
C -0.59400 -0.90800 3.10500
C -0.93600 -0.30900 4.50200
C -1.77300 0.96400 4.03200
C -1.15500 1.16800 2.66000
C -3.26300 0.68500 3.86300
C 0.34500 0.11000 5.29900
C 0.12400 0.39700 6.78700
H 1.16800 0.03300 7.73300
N -0.18500 1.96100 -0.15200
C -0.70300 2.80000 0.77700
C -0.62000 4.15600 0.19300
C -0.18700 4.01500 -1.22500
C -0.21400 2.58300 -1.38000
C -0.88700 5.40600 0.97400
C 0.18100 5.01300 -2.27700
O 0.30300 4.69000 -3.50800
C 0.31000 6.41400 -1.83700
N -0.26500 -0.41300 -2.02900
C -0.27900 0.56900 -2.93700
C -0.19600 0.02400 -4.33200
C 0.12400 -1.53300 -4.18000
C 0.08600 -1.63200 -2.63500
C -1.45100 0.20500 -5.19700
C 1.37300 -2.07000 -4.92300
C 2.62600 -1.49000 -4.30600
N 0.15000 -2.14400 0.30300
C 0.17300 -3.13600 -0.68800
C 0.17300 -4.43800 0.00400
C 0.13300 -4.11100 1.35800
C 0.08300 -2.69500 1.50200
C 0.14900 -5.71500 -0.62300
C 0.09600 -4.62900 2.71600
O 0.20800 -5.74700 3.22100
C -0.25500 -3.42800 3.70100
C 0.71700 -3.48200 4.84800
O 1.93100 -3.25500 4.66900
O 0.03800 -3.55600 6.00300
C 0.94300 -3.58300 7.18300
H -1.85900 3.22000 2.49700
H -0.21800 2.45300 -3.47400
H 0.27600 -3.74700 -2.60500
H -1.55400 -0.94900 5.13200
H -1.58500 1.83100 4.66500
H -3.48400 -0.37700 3.96900
H -3.51100 1.02700 2.85800
H -3.85200 1.30100 4.54300
H 0.66900 1.09600 4.96600
H 1.13000 -0.63900 5.18900
H -0.84400 0.02600 7.12500
H 0.06200 1.47700 6.92100
H -1.34400 5.18600 1.93800
H -1.65100 5.96300 0.43200
H 0.00700 6.02000 1.08400
H -0.63500 6.74400 -1.40500
H 0.66500 6.97000 -2.70400
H 1.04800 6.46600 -1.03600
H 0.60800 0.50100 -4.89100
H -0.69200 -2.15600 -4.54700
H -1.26700 0.74000 -6.12900
H -2.20400 0.71400 -4.59600
H -1.96700 -0.72000 -5.45300
H 1.35600 -1.75900 -5.96700
H 1.45200 -3.15700 -4.90200
H 2.71400 -0.52200 -4.79800
H 3.48700 -2.12100 -4.52900
H 2.49500 -1.30300 -3.24000
H 0.86700 -6.33300 -0.08400
H 0.40400 -5.64200 -1.68000
H -0.89100 -5.99900 -0.46300
H -1.28300 -3.58100 4.02800
H 0.69800 -4.47800 7.75500
H 0.83300 -2.61900 7.68000
H 2.00000 -3.75400 6.97600
Mg 7.87793 0.70371 0.60585
C 6.67082 3.21173 2.87120
C 9.54384 -0.66766 3.24757
C 9.31424 -1.24905 -1.44138
C 7.07947 2.87310 -2.00219
N 8.01139 1.28731 2.73514
C 7.46043 2.22272 3.49395
C 7.70767 2.04439 5.01599
C 9.05332 1.17125 4.94035
C 8.84845 0.52452 3.57198
C 10.31597 2.01508 4.88560
C 6.54952 1.25484 5.72120
C 6.57095 1.31113 7.25030
H 5.29710 1.34464 7.96349
N 8.82447 -1.01268 0.91671
C 9.42302 -1.41701 2.05668
C 9.99143 -2.74205 1.76455
C 9.82199 -3.01516 0.31148
C 9.32141 -1.73273 -0.14116
C 10.54726 -3.64187 2.82981
C 10.08125 -4.22565 -0.53333
O 10.08726 -4.16454 -1.81359
C 10.42001 -5.46434 0.18247
N 8.35453 0.87706 -1.41037
C 8.93105 -0.14010 -2.07440
C 8.92685 0.10879 -3.56384
C 8.00708 1.39889 -3.78125
C 7.69765 1.74040 -2.30713
C 10.29513 0.34611 -4.20249
C 6.81939 1.25754 -4.77224
C 5.78912 0.30446 -4.21048
N 6.86401 2.60223 0.41706
C 6.66232 3.34767 -0.76519
C 6.02660 4.62225 -0.37311
C 5.92270 4.53899 1.02358
C 6.47438 3.30864 1.47236
C 5.67479 5.68238 -1.25542
C 5.48142 5.21673 2.22135
O 4.86006 6.25276 2.45436
C 6.06092 4.44246 3.48272
C 4.93951 4.25348 4.46722
O 3.96663 3.53160 4.18615
O 5.30132 4.77644 5.65296
C 4.22582 4.60364 6.66550
H 10.28451 -1.04469 3.95336
H 9.69861 -1.93348 -2.20118
H 6.71016 3.56058 -2.76617
H 7.89153 2.96473 5.55724
H 9.07742 0.41438 5.72005
H 10.09346 3.06719 4.78709
H 10.86805 1.66286 4.02410
H 10.94708 1.80596 5.75410
H 6.70616 0.17896 5.57058
H 5.59269 1.57949 5.36103
H 7.24165 2.09409 7.62458
H 7.00743 0.38236 7.62565
H 10.68930 -3.10513 3.77593
H 11.56087 -3.91723 2.51893
H 9.95849 -4.55216 2.96166
H 11.30871 -5.30042 0.78728
H 10.48191 -6.23796 -0.58536
H 9.60604 -5.70095 0.87680
H 8.48957 -0.72802 -4.09452
H 8.58135 2.24519 -4.18601
H 10.52303 -0.36159 -5.02182
H 11.04826 0.28650 -3.42804
H 10.45165 1.34730 -4.60039
H 7.16219 0.82371 -5.71481
H 6.33890 2.20123 -5.00798
H 6.18459 -0.67748 -4.48707
H 4.81630 0.48050 -4.66508
H 5.76360 0.35309 -3.11566
H 4.69175 6.02210 -0.95755
H 5.68594 5.35611 -2.29330
H 6.47878 6.39099 -1.03924
H 6.86996 5.04679 3.89480
H 3.99324 5.59858 7.05753
H 4.60993 3.85600 7.38470
H 3.25264 4.28236 6.31314

