%nproc=24
%mem=175gb
#p cam-b3lyp/Def2SVP td=(nstates=5)

TDDFT excited states in gaussian

0 1
Mg 10.51787 0.95297 0.79419
C 9.89691 3.90666 2.73563
C 9.68062 2.77252 -1.96677
C 10.61869 -1.73636 -0.88651
C 10.19039 -0.88292 3.73832
N 9.88828 3.05860 0.54479
C 9.74729 4.10312 1.34694
C 9.50704 5.44977 0.61321
C 8.89803 4.87232 -0.75593
C 9.55323 3.49269 -0.75218
C 7.39056 4.68528 -0.71239
C 10.83945 6.23922 0.36131
C 10.65239 7.69539 -0.07034
H 11.61672 8.68855 0.39461
N 10.67606 0.66705 -1.16331
C 10.30837 1.51978 -2.14256
C 10.61191 0.83400 -3.40816
C 11.03565 -0.55831 -3.09734
C 10.76741 -0.60394 -1.67394
C 10.56451 1.52517 -4.73988
C 11.57884 -1.66951 -3.94374
O 11.65494 -2.87246 -3.50790
C 11.93185 -1.32603 -5.32898
N 10.21028 -1.03946 1.30207
C 10.36766 -2.01701 0.39237
C 10.36548 -3.37750 1.04771
C 10.41640 -3.09649 2.62125
C 10.34608 -1.55370 2.60520
C 9.16461 -4.26769 0.72857
C 11.56173 -3.77592 3.42079
C 12.89382 -3.18700 3.01570
N 10.30173 1.40821 2.89516
C 10.15524 0.48840 3.95656
C 9.92638 1.27503 5.18590
C 9.93273 2.60769 4.74719
C 10.13004 2.64785 3.34044
C 9.69945 0.74040 6.48543
C 9.80678 3.98915 5.15267
O 9.71451 4.57277 6.23184
C 9.65170 4.88613 3.84969
C 10.59125 6.05403 3.97524
O 11.82219 5.87699 3.98268
O 9.89302 7.19702 3.84716
C 10.78321 8.38364 3.95352
H 9.21985 3.18453 -2.86500
H 10.75572 -2.69005 -1.40146
H 10.17659 -1.37715 4.71209
H 8.78990 6.10606 1.09151
H 9.23326 5.45131 -1.61253
H 6.99118 4.86076 0.27545
H 7.21219 3.66213 -1.01635
H 6.91088 5.31252 -1.46924
H 11.32881 5.83870 -0.53583
H 11.47623 6.19685 1.22348
H 9.62720 8.04684 0.09824
H 10.78158 7.75552 -1.15372
H 10.06084 2.49725 -4.67086
H 9.91383 0.92747 -5.38736
H 11.54828 1.60772 -5.20684
H 11.05449 -0.93540 -5.83898
H 12.38488 -2.22705 -5.74709
H 12.67153 -0.51783 -5.31139
H 11.24310 -3.94505 0.76351
H 9.50512 -3.44735 3.12751
H 9.44874 -5.24449 0.29359
H 8.50904 -3.72882 0.05746
H 8.50916 -4.47875 1.57180
H 11.60859 -4.84165 3.18377
H 11.44777 -3.68991 4.49625
H 13.14536 -3.74591 2.10937
H 13.63577 -3.34534 3.79575
H 12.78881 -2.13274 2.73435
H 10.29002 1.33145 7.17274
H 9.96716 -0.31303 6.53428
H 8.62069 0.89432 6.57401
H 8.60973 5.20328 3.79240
H 10.38002 9.01503 4.75132
H 10.82268 8.81952 2.93754
H 11.79570 8.22083 4.30394

