%nproc=24
%mem=175gb
#p cam-b3lyp/Def2SVP td=(nstates=5)

TDDFT excited states in gaussian

0 1
Mg 31.53445 2.84361 2.40458
C 30.13264 0.46759 4.69991
C 29.30793 5.11776 3.63156
C 32.43506 4.82337 0.09442
C 32.81784 0.14499 0.61124
N 29.97317 2.69293 3.96406
C 29.57310 1.75746 4.81211
C 28.57204 2.25235 5.89031
C 27.97805 3.51985 5.10324
C 29.16917 3.82518 4.19732
C 26.78550 3.17838 4.22542
C 29.28851 2.68458 7.21766
C 28.35727 2.88464 8.41538
H 28.84254 2.51849 9.74313
N 31.31831 4.80961 2.24127
C 30.37343 5.57570 2.82574
C 30.63451 6.95115 2.37393
C 31.70916 6.91095 1.34523
C 31.85114 5.47967 1.16814
C 29.95045 8.14707 2.96996
C 32.47261 7.98343 0.62889
O 33.19437 7.72458 -0.39819
C 32.27647 9.35938 1.10825
N 32.30650 2.52961 0.49994
C 32.66352 3.56461 -0.28059
C 33.44435 3.09559 -1.48505
C 33.74696 1.54701 -1.22449
C 32.97829 1.35862 0.10180
C 32.74574 3.25725 -2.83494
C 35.23322 1.10007 -1.28733
C 36.00328 1.70526 -0.13575
N 31.65905 0.70542 2.68867
C 32.21523 -0.24196 1.80141
C 31.96300 -1.57865 2.37767
C 31.25178 -1.31529 3.55804
C 31.05576 0.08538 3.69666
C 32.33313 -2.82118 1.79010
C 30.61302 -1.90435 4.71290
O 30.53330 -3.04145 5.17590
C 29.74998 -0.78449 5.43917
C 30.05070 -0.84839 6.91158
O 31.18568 -0.57084 7.33750
O 28.90025 -1.01343 7.58952
C 29.14550 -1.07156 9.05522
H 28.50472 5.83940 3.78311
H 32.86098 5.46853 -0.67749
H 33.27151 -0.74121 0.16234
H 27.77701 1.55515 6.12617
H 27.78930 4.35080 5.77797
H 26.60716 2.11413 4.18423
H 27.02546 3.56014 3.24169
H 25.90263 3.73259 4.55667
H 29.66888 3.70771 7.10245
H 30.06450 1.99025 7.47529
H 27.36187 2.45911 8.23917
H 28.17352 3.95489 8.53710
H 29.09291 7.85351 3.58790
H 29.50775 8.70873 2.14024
H 30.63876 8.79979 3.51112
H 31.22247 9.61833 1.04125
H 32.97230 9.97176 0.53146
H 32.54401 9.40145 2.16997
H 34.38383 3.62810 -1.56821
H 33.25283 0.90455 -1.96807
H 33.32765 3.85916 -3.55824
H 31.77398 3.70160 -2.66531
H 32.48943 2.32576 -3.33677
H 35.70165 1.47030 -2.20257
H 35.36130 0.02286 -1.27303
H 36.25043 2.70586 -0.50290
H 36.90192 1.12720 0.07000
H 35.36275 1.82641 0.74555
H 32.73727 -3.43347 2.58525
H 33.05513 -2.68232 0.98809
H 31.36245 -3.15642 1.41507
H 28.70028 -0.99049 5.22640
H 28.70889 -2.00826 9.41531
H 28.73003 -0.13183 9.46514
H 30.17168 -1.17487 9.38798

