%nproc=24
%mem=175gb
#p cam-b3lyp/Def2SVP td=(nstates=5)

TDDFT excited states in gaussian

0 1
Mg 0.00000 0.00000 0.00000
C -0.21700 -2.21800 2.80100
C -1.25500 2.44200 2.02600
C -0.24500 1.85000 -2.56400
C 0.14600 -2.82400 -2.03700
N -0.61700 -0.00900 2.12600
C -0.59400 -0.90800 3.10500
C -0.93600 -0.30900 4.50200
C -1.77300 0.96400 4.03200
C -1.15500 1.16800 2.66000
C -3.26300 0.68500 3.86300
C 0.34500 0.11000 5.29900
C 0.12400 0.39700 6.78700
H 1.16800 0.03300 7.73300
N -0.18500 1.96100 -0.15200
C -0.70300 2.80000 0.77700
C -0.62000 4.15600 0.19300
C -0.18700 4.01500 -1.22500
C -0.21400 2.58300 -1.38000
C -0.88700 5.40600 0.97400
C 0.18100 5.01300 -2.27700
O 0.30300 4.69000 -3.50800
C 0.31000 6.41400 -1.83700
N -0.26500 -0.41300 -2.02900
C -0.27900 0.56900 -2.93700
C -0.19600 0.02400 -4.33200
C 0.12400 -1.53300 -4.18000
C 0.08600 -1.63200 -2.63500
C -1.45100 0.20500 -5.19700
C 1.37300 -2.07000 -4.92300
C 2.62600 -1.49000 -4.30600
N 0.15000 -2.14400 0.30300
C 0.17300 -3.13600 -0.68800
C 0.17300 -4.43800 0.00400
C 0.13300 -4.11100 1.35800
C 0.08300 -2.69500 1.50200
C 0.14900 -5.71500 -0.62300
C 0.09600 -4.62900 2.71600
O 0.20800 -5.74700 3.22100
C -0.25500 -3.42800 3.70100
C 0.71700 -3.48200 4.84800
O 1.93100 -3.25500 4.66900
O 0.03800 -3.55600 6.00300
C 0.94300 -3.58300 7.18300
H -1.85900 3.22000 2.49700
H -0.21800 2.45300 -3.47400
H 0.27600 -3.74700 -2.60500
H -1.55400 -0.94900 5.13200
H -1.58500 1.83100 4.66500
H -3.48400 -0.37700 3.96900
H -3.51100 1.02700 2.85800
H -3.85200 1.30100 4.54300
H 0.66900 1.09600 4.96600
H 1.13000 -0.63900 5.18900
H -0.84400 0.02600 7.12500
H 0.06200 1.47700 6.92100
H -1.34400 5.18600 1.93800
H -1.65100 5.96300 0.43200
H 0.00700 6.02000 1.08400
H -0.63500 6.74400 -1.40500
H 0.66500 6.97000 -2.70400
H 1.04800 6.46600 -1.03600
H 0.60800 0.50100 -4.89100
H -0.69200 -2.15600 -4.54700
H -1.26700 0.74000 -6.12900
H -2.20400 0.71400 -4.59600
H -1.96700 -0.72000 -5.45300
H 1.35600 -1.75900 -5.96700
H 1.45200 -3.15700 -4.90200
H 2.71400 -0.52200 -4.79800
H 3.48700 -2.12100 -4.52900
H 2.49500 -1.30300 -3.24000
H 0.86700 -6.33300 -0.08400
H 0.40400 -5.64200 -1.68000
H -0.89100 -5.99900 -0.46300
H -1.28300 -3.58100 4.02800
H 0.69800 -4.47800 7.75500
H 0.83300 -2.61900 7.68000
H 2.00000 -3.75400 6.97600
Mg 13.12910 1.18607 1.00156
C 11.06979 -1.60132 0.06952
C 11.14597 3.12389 -0.98506
C 15.18211 3.56480 1.44231
C 15.56576 -1.11325 1.96151
N 11.36582 0.70787 -0.24520
C 10.63612 -0.37377 -0.47313
C 9.32662 -0.11124 -1.26423
C 9.76141 1.24528 -2.00562
C 10.79863 1.74945 -1.00429
C 10.45738 1.00783 -3.33550
C 8.09432 0.11941 -0.32070
C 6.73299 0.07431 -1.01820
H 5.59807 -0.49092 -0.29365
N 12.90582 3.14049 0.73892
C 12.03717 3.75609 -0.09039
C 12.28162 5.19795 0.06915
C 13.47711 5.37783 0.93700
C 13.92351 4.00451 1.05875
C 11.37355 6.24577 -0.50609
C 14.12046 6.58728 1.54489
O 15.28931 6.53679 2.06841
C 13.38134 7.85260 1.42597
N 15.16629 1.23214 1.41396
C 15.80557 2.39853 1.61094
C 17.19337 2.17364 2.16212
C 17.26521 0.61738 2.52332
C 15.87621 0.17482 2.01322
C 18.34717 2.53232 1.22591
C 17.67009 0.25031 3.97729
C 16.58742 0.68331 4.93944
N 13.24907 -0.96218 1.19817
C 14.37290 -1.72128 1.59168
C 14.00279 -3.14569 1.46329
C 12.68660 -3.11630 0.97823
C 12.27312 -1.76887 0.79661
C 14.85458 -4.25401 1.73199
C 11.55671 -3.91886 0.56846
O 11.29234 -5.12032 0.58679
C 10.50374 -2.97553 -0.15802
C 9.14302 -3.27541 0.40858
O 8.88545 -3.02671 1.59956
O 8.30937 -3.60110 -0.59607
C 6.94421 -3.89650 -0.08529
H 10.72962 3.77506 -1.75416
H 15.89333 4.34875 1.71260
H 16.23613 -1.89071 2.33412
H 9.07743 -0.87106 -1.99523
H 8.92945 1.94118 -2.07580
H 10.65085 -0.04058 -3.50743
H 11.38632 1.56054 -3.28419
H 9.88195 1.46032 -4.14819
H 8.09563 1.16231 0.02151
H 8.10484 -0.57537 0.49649
H 6.79956 -0.35657 -2.02460
H 6.39566 1.09977 -1.18746
H 10.67285 5.81599 -1.23253
H 11.99977 6.92086 -1.09936
H 10.85902 6.82560 0.26314
H 13.21235 8.07471 0.37498
H 13.95767 8.58254 1.99773
H 12.39387 7.72528 1.88346
H 17.34929 2.75147 3.06484
H 18.00872 0.09010 1.90768
H 19.04679 3.27200 1.65890
H 17.93147 2.90032 0.29730
H 18.94956 1.68945 0.89140
H 18.57562 0.78965 4.26587
H 17.86695 -0.80740 4.11688
H 16.81275 1.74114 5.10468
H 16.64987 0.11696 5.86647
H 15.59827 0.62633 4.47041
H 14.26375 -4.97472 2.28153
H 15.73621 -3.95104 2.29299
H 15.10235 -4.56125 0.71244
H 10.55772 -3.18634 -1.22676
H 6.68067 -4.89816 -0.43871
H 6.30910 -3.05811 -0.42806
H 6.82377 -4.01157 0.98555

