%nproc=24
%mem=175gb
#p cam-b3lyp/Def2SVP td=(nstates=5)

TDDFT excited states in gaussian

0 1
Mg 0.00000 0.00000 0.00000
C -0.21700 -2.21800 2.80100
C -1.25500 2.44200 2.02600
C -0.24500 1.85000 -2.56400
C 0.14600 -2.82400 -2.03700
N -0.61700 -0.00900 2.12600
C -0.59400 -0.90800 3.10500
C -0.93600 -0.30900 4.50200
C -1.77300 0.96400 4.03200
C -1.15500 1.16800 2.66000
C -3.26300 0.68500 3.86300
C 0.34500 0.11000 5.29900
C 0.12400 0.39700 6.78700
H 1.16800 0.03300 7.73300
N -0.18500 1.96100 -0.15200
C -0.70300 2.80000 0.77700
C -0.62000 4.15600 0.19300
C -0.18700 4.01500 -1.22500
C -0.21400 2.58300 -1.38000
C -0.88700 5.40600 0.97400
C 0.18100 5.01300 -2.27700
O 0.30300 4.69000 -3.50800
C 0.31000 6.41400 -1.83700
N -0.26500 -0.41300 -2.02900
C -0.27900 0.56900 -2.93700
C -0.19600 0.02400 -4.33200
C 0.12400 -1.53300 -4.18000
C 0.08600 -1.63200 -2.63500
C -1.45100 0.20500 -5.19700
C 1.37300 -2.07000 -4.92300
C 2.62600 -1.49000 -4.30600
N 0.15000 -2.14400 0.30300
C 0.17300 -3.13600 -0.68800
C 0.17300 -4.43800 0.00400
C 0.13300 -4.11100 1.35800
C 0.08300 -2.69500 1.50200
C 0.14900 -5.71500 -0.62300
C 0.09600 -4.62900 2.71600
O 0.20800 -5.74700 3.22100
C -0.25500 -3.42800 3.70100
C 0.71700 -3.48200 4.84800
O 1.93100 -3.25500 4.66900
O 0.03800 -3.55600 6.00300
C 0.94300 -3.58300 7.18300
H -1.85900 3.22000 2.49700
H -0.21800 2.45300 -3.47400
H 0.27600 -3.74700 -2.60500
H -1.55400 -0.94900 5.13200
H -1.58500 1.83100 4.66500
H -3.48400 -0.37700 3.96900
H -3.51100 1.02700 2.85800
H -3.85200 1.30100 4.54300
H 0.66900 1.09600 4.96600
H 1.13000 -0.63900 5.18900
H -0.84400 0.02600 7.12500
H 0.06200 1.47700 6.92100
H -1.34400 5.18600 1.93800
H -1.65100 5.96300 0.43200
H 0.00700 6.02000 1.08400
H -0.63500 6.74400 -1.40500
H 0.66500 6.97000 -2.70400
H 1.04800 6.46600 -1.03600
H 0.60800 0.50100 -4.89100
H -0.69200 -2.15600 -4.54700
H -1.26700 0.74000 -6.12900
H -2.20400 0.71400 -4.59600
H -1.96700 -0.72000 -5.45300
H 1.35600 -1.75900 -5.96700
H 1.45200 -3.15700 -4.90200
H 2.71400 -0.52200 -4.79800
H 3.48700 -2.12100 -4.52900
H 2.49500 -1.30300 -3.24000
H 0.86700 -6.33300 -0.08400
H 0.40400 -5.64200 -1.68000
H -0.89100 -5.99900 -0.46300
H -1.28300 -3.58100 4.02800
H 0.69800 -4.47800 7.75500
H 0.83300 -2.61900 7.68000
H 2.00000 -3.75400 6.97600
Mg 8.94239 0.80799 0.67299
C 11.57057 -1.37094 1.77933
C 10.80868 3.41032 1.84746
C 6.46072 2.70672 0.12203
C 6.84055 -1.97175 0.64022
N 10.91818 0.88300 1.66438
C 11.85183 -0.00299 1.97692
C 13.19140 0.61669 2.45765
C 12.63122 2.03118 2.97175
C 11.39244 2.14034 2.08508
C 12.17965 2.00829 4.42257
C 14.22046 0.79756 1.28703
C 15.65184 1.10689 1.73113
H 16.75690 0.55762 0.95036
N 8.85144 2.78198 0.48958
C 9.70440 3.68792 1.01209
C 9.18952 5.00529 0.60765
C 7.87229 4.81027 -0.05688
C 7.66282 3.39651 0.18292
C 9.96931 6.27489 0.79058
C 6.94746 5.74460 -0.77654
O 5.74468 5.41033 -1.06709
C 7.46084 7.09522 -1.04808
N 6.89184 0.46900 0.62110
C 6.03565 1.45652 0.30539
C 4.64645 0.91691 0.06180
C 4.80100 -0.67474 0.04287
C 6.30348 -0.78715 0.38245
C 3.58884 1.31306 1.09180
C 4.26934 -1.41857 -1.21280
C 5.11428 -1.06832 -2.41646
N 9.17740 -1.32292 0.94145
C 8.16163 -2.30345 0.91247
C 8.79156 -3.59334 1.26145
C 10.13629 -3.26730 1.49358
C 10.32658 -1.86944 1.32246
C 8.11986 -4.84303 1.37638
C 11.43590 -3.78614 1.85485
O 11.90306 -4.90990 2.03555
C 12.39634 -2.56198 2.17951
C 13.69653 -2.78753 1.45761
O 13.73822 -2.78419 0.21469
O 14.70590 -2.75292 2.34663
C 16.01739 -2.96075 1.67683
H 11.20627 4.27257 2.38350
H 5.59174 3.29895 -0.17399
H 6.27280 -2.90087 0.55612
H 13.66987 0.08766 3.27311
H 13.32884 2.83542 2.75291
H 12.20007 1.01055 4.83518
H 11.16975 2.39707 4.42250
H 12.77337 2.71175 5.01331
H 13.98756 1.72337 0.74540
H 14.21936 -0.06015 0.64285
H 15.80280 0.91292 2.80002
H 15.82304 2.18106 1.62686
H 10.82886 6.12671 1.45587
H 9.32231 6.97207 1.33391
H 10.26150 6.73015 -0.15812
H 7.73227 7.57373 -0.11010
H 6.69098 7.58553 -1.64707
H 8.38202 7.00790 -1.63495
H 4.26715 1.24459 -0.89834
H 4.25507 -1.14701 0.87278
H 2.71639 1.82705 0.64601
H 4.05792 1.93904 1.83924
H 3.19709 0.49250 1.69047
H 3.25166 -1.09366 -1.44284
H 4.24483 -2.49707 -1.09785
H 4.68502 -0.11937 -2.75160
H 5.02466 -1.83486 -3.18355
H 6.15335 -0.87551 -2.12525
H 8.74649 -5.57914 0.89061
H 7.12936 -4.80474 0.92779
H 8.07425 -4.94062 2.46434
H 12.52938 -2.52795 3.26150
H 16.50010 -3.80709 2.17519
H 16.53588 -1.98478 1.72591
H 16.00635 -3.29966 0.64752

