%nproc=24
%mem=175gb
#p cam-b3lyp/Def2SVP td=(nstates=5)

TDDFT excited states in gaussian

0 1
Mg 0.00000 0.00000 0.00000
C -0.21700 -2.21800 2.80100
C -1.25500 2.44200 2.02600
C -0.24500 1.85000 -2.56400
C 0.14600 -2.82400 -2.03700
N -0.61700 -0.00900 2.12600
C -0.59400 -0.90800 3.10500
C -0.93600 -0.30900 4.50200
C -1.77300 0.96400 4.03200
C -1.15500 1.16800 2.66000
C -3.26300 0.68500 3.86300
C 0.34500 0.11000 5.29900
C 0.12400 0.39700 6.78700
H 1.16800 0.03300 7.73300
N -0.18500 1.96100 -0.15200
C -0.70300 2.80000 0.77700
C -0.62000 4.15600 0.19300
C -0.18700 4.01500 -1.22500
C -0.21400 2.58300 -1.38000
C -0.88700 5.40600 0.97400
C 0.18100 5.01300 -2.27700
O 0.30300 4.69000 -3.50800
C 0.31000 6.41400 -1.83700
N -0.26500 -0.41300 -2.02900
C -0.27900 0.56900 -2.93700
C -0.19600 0.02400 -4.33200
C 0.12400 -1.53300 -4.18000
C 0.08600 -1.63200 -2.63500
C -1.45100 0.20500 -5.19700
C 1.37300 -2.07000 -4.92300
C 2.62600 -1.49000 -4.30600
N 0.15000 -2.14400 0.30300
C 0.17300 -3.13600 -0.68800
C 0.17300 -4.43800 0.00400
C 0.13300 -4.11100 1.35800
C 0.08300 -2.69500 1.50200
C 0.14900 -5.71500 -0.62300
C 0.09600 -4.62900 2.71600
O 0.20800 -5.74700 3.22100
C -0.25500 -3.42800 3.70100
C 0.71700 -3.48200 4.84800
O 1.93100 -3.25500 4.66900
O 0.03800 -3.55600 6.00300
C 0.94300 -3.58300 7.18300
H -1.85900 3.22000 2.49700
H -0.21800 2.45300 -3.47400
H 0.27600 -3.74700 -2.60500
H -1.55400 -0.94900 5.13200
H -1.58500 1.83100 4.66500
H -3.48400 -0.37700 3.96900
H -3.51100 1.02700 2.85800
H -3.85200 1.30100 4.54300
H 0.66900 1.09600 4.96600
H 1.13000 -0.63900 5.18900
H -0.84400 0.02600 7.12500
H 0.06200 1.47700 6.92100
H -1.34400 5.18600 1.93800
H -1.65100 5.96300 0.43200
H 0.00700 6.02000 1.08400
H -0.63500 6.74400 -1.40500
H 0.66500 6.97000 -2.70400
H 1.04800 6.46600 -1.03600
H 0.60800 0.50100 -4.89100
H -0.69200 -2.15600 -4.54700
H -1.26700 0.74000 -6.12900
H -2.20400 0.71400 -4.59600
H -1.96700 -0.72000 -5.45300
H 1.35600 -1.75900 -5.96700
H 1.45200 -3.15700 -4.90200
H 2.71400 -0.52200 -4.79800
H 3.48700 -2.12100 -4.52900
H 2.49500 -1.30300 -3.24000
H 0.86700 -6.33300 -0.08400
H 0.40400 -5.64200 -1.68000
H -0.89100 -5.99900 -0.46300
H -1.28300 -3.58100 4.02800
H 0.69800 -4.47800 7.75500
H 0.83300 -2.61900 7.68000
H 2.00000 -3.75400 6.97600
Mg 8.94180 0.79802 0.68258
C 9.15392 -1.68440 -1.90038
C 8.12233 -1.72191 2.83037
C 8.30780 3.00469 2.87258
C 8.64838 3.19121 -1.83381
N 8.70157 -1.38048 0.38481
C 8.86789 -2.21904 -0.62688
C 8.79859 -3.71980 -0.23641
C 7.91949 -3.58016 1.10021
C 8.29252 -2.15131 1.48995
C 6.42244 -3.62994 0.84385
C 10.21426 -4.32428 0.06771
C 10.25650 -5.85158 0.15332
H 11.44513 -6.54360 -0.33733
N 8.78964 0.64314 2.65525
C 8.46999 -0.46086 3.36256
C 8.47125 -0.04834 4.77464
C 8.65605 1.42721 4.83210
C 8.56893 1.75881 3.42407
C 8.38698 -1.02826 5.90870
C 8.86256 2.38335 5.96760
O 8.76153 3.65099 5.80731
C 9.09425 1.78824 7.29186
N 8.32508 2.77908 0.55069
C 8.17376 3.53101 1.65506
C 7.99447 4.98836 1.30238
C 8.29988 5.09203 -0.26401
C 8.52566 3.59662 -0.57733
C 6.61417 5.57785 1.59160
C 9.38636 6.11149 -0.70324
C 10.74355 5.66383 -0.21027
N 9.08849 0.81452 -1.47294
C 8.90551 1.92032 -2.33190
C 8.99164 1.41445 -3.71722
C 9.19744 0.03475 -3.56699
C 9.21663 -0.29899 -2.18578
C 8.83492 2.19312 -4.89842
C 9.39220 -1.21682 -4.26292
O 9.55296 -1.54104 -5.43883
C 9.24638 -2.40468 -3.21691
C 10.40091 -3.34711 -3.42038
O 11.56553 -2.98002 -3.18474
O 9.92460 -4.58457 -3.64883
C 11.03224 -5.55725 -3.84591
H 7.63789 -2.39896 3.53451
H 8.19192 3.82211 3.58803
H 8.66499 3.88933 -2.67347
H 8.28824 -4.35245 -0.95271
H 8.24693 -4.28139 1.86338
H 6.19430 -3.63245 -0.21165
H 6.01341 -2.74697 1.31724
H 5.97906 -4.48371 1.36426
H 10.49836 -4.07047 1.09708
H 10.93631 -3.98238 -0.64809
H 9.34814 -6.31250 -0.25337
H 10.25473 -6.14025 1.20721
H 8.09245 -2.02507 5.55795
H 7.55603 -0.70830 6.54668
H 9.30009 -1.05966 6.50696
H 8.25019 1.15568 7.55620
H 9.30836 2.62777 7.95611
H 9.97139 1.13420 7.23288
H 8.70292 5.60639 1.84020
H 7.41082 5.40154 -0.83287
H 6.64723 6.45937 2.25936
H 5.99370 4.80086 2.01802
H 6.04411 5.87205 0.71202
H 9.19689 7.08663 -0.24786
H 9.42999 6.26049 -1.77696
H 10.76467 6.02975 0.82063
H 11.53513 6.11466 -0.80541
H 10.80773 4.57014 -0.17322
H 9.61121 1.87924 -5.58352
H 8.89937 3.25788 -4.68417
H 7.82624 1.89468 -5.19636
H 8.28612 -2.88778 -3.40159
H 10.86356 -6.04199 -4.81249
H 11.02399 -6.20509 -2.94926
H 12.03106 -5.15890 -3.98053

