%nproc=24
%mem=175gb
#p cam-b3lyp/Def2SVP td=(nstates=5)

TDDFT excited states in gaussian

0 1
Mg 10.51917 0.95107 0.80294
C 11.11153 -1.20554 3.60957
C 10.02506 3.47851 3.03957
C 9.55309 2.76676 -1.61313
C 9.93427 -1.91177 -1.09648
N 10.58760 1.00550 3.01305
C 10.88350 0.13890 3.97002
C 11.01707 0.76368 5.38472
C 10.10738 2.06760 5.15860
C 10.27298 2.22224 3.64819
C 8.63564 1.83364 5.45626
C 12.49818 1.14950 5.73034
C 12.75039 1.47671 7.20380
H 14.03060 1.09353 7.79263
N 10.36071 2.92433 0.66266
C 10.18669 3.80065 1.67412
C 10.10983 5.12907 1.04677
C 10.08749 4.94964 -0.43039
C 9.97614 3.50748 -0.51910
C 10.14537 6.40519 1.83651
C 10.14265 5.91698 -1.57382
O 9.86930 5.55780 -2.77344
C 10.43491 7.31728 -1.23437
N 9.63589 0.51029 -1.02678
C 9.36547 1.48205 -1.91586
C 8.99120 0.90334 -3.25952
C 9.30248 -0.66183 -3.15495
C 9.73794 -0.73491 -1.67494
C 7.53839 1.10541 -3.68951
C 10.24359 -1.26578 -4.23301
C 11.64226 -0.71803 -4.06249
N 10.69411 -1.18066 1.10823
C 10.37240 -2.20322 0.18901
C 10.54834 -3.49101 0.89120
C 10.94110 -3.12472 2.18737
C 10.98587 -1.70819 2.29189
C 10.30275 -4.77985 0.33920
C 11.31772 -3.61409 3.49403
O 11.53928 -4.72461 3.97507
C 11.32243 -2.39136 4.50956
C 12.59931 -2.45092 5.30236
O 13.69820 -2.28541 4.74409
O 12.30253 -2.47601 6.61448
C 13.53708 -2.52410 7.44237
H 9.62874 4.28500 3.65712
H 9.31445 3.34389 -2.50949
H 9.86643 -2.85191 -1.64803
H 10.60999 0.16101 6.18774
H 10.51748 2.93015 5.67743
H 8.42573 0.79372 5.65785
H 8.10122 2.16356 4.57501
H 8.30719 2.48656 6.26998
H 12.72908 2.12323 5.27946
H 13.17642 0.38304 5.40917
H 11.92081 1.15534 7.84525
H 12.77303 2.56308 7.31908
H 9.99705 6.21972 2.90749
H 9.26873 6.99034 1.53822
H 11.04504 6.99398 1.64525
H 9.68283 7.68520 -0.54050
H 10.52074 7.83787 -2.19014
H 11.39500 7.35655 -0.70777
H 9.59910 1.33066 -4.04752
H 8.38764 -1.26602 -3.24355
H 7.43906 1.62415 -4.66169
H 7.02532 1.65465 -2.91128
H 6.94616 0.19451 -3.75826
H 9.91408 -0.96995 -5.23204
H 10.28206 -2.34983 -4.21445
H 11.59718 0.24132 -4.58660
H 12.37246 -1.38323 -4.51895
H 11.85683 -0.50793 -3.00823
H 11.12512 -5.41207 0.64663
H 10.21584 -4.73823 -0.74454
H 9.34969 -5.01895 0.81855
H 10.44123 -2.48963 5.14471
H 13.45155 -3.39995 8.09295
H 13.60539 -1.53576 7.93457
H 14.47294 -2.72786 6.93532

