%nproc=24
%mem=175gb
#p cam-b3lyp/Def2SVP td=(nstates=5)

TDDFT excited states in gaussian

0 1
Mg 0.00000 0.00000 0.00000
C -0.21700 -2.21800 2.80100
C -1.25500 2.44200 2.02600
C -0.24500 1.85000 -2.56400
C 0.14600 -2.82400 -2.03700
N -0.61700 -0.00900 2.12600
C -0.59400 -0.90800 3.10500
C -0.93600 -0.30900 4.50200
C -1.77300 0.96400 4.03200
C -1.15500 1.16800 2.66000
C -3.26300 0.68500 3.86300
C 0.34500 0.11000 5.29900
C 0.12400 0.39700 6.78700
H 1.16800 0.03300 7.73300
N -0.18500 1.96100 -0.15200
C -0.70300 2.80000 0.77700
C -0.62000 4.15600 0.19300
C -0.18700 4.01500 -1.22500
C -0.21400 2.58300 -1.38000
C -0.88700 5.40600 0.97400
C 0.18100 5.01300 -2.27700
O 0.30300 4.69000 -3.50800
C 0.31000 6.41400 -1.83700
N -0.26500 -0.41300 -2.02900
C -0.27900 0.56900 -2.93700
C -0.19600 0.02400 -4.33200
C 0.12400 -1.53300 -4.18000
C 0.08600 -1.63200 -2.63500
C -1.45100 0.20500 -5.19700
C 1.37300 -2.07000 -4.92300
C 2.62600 -1.49000 -4.30600
N 0.15000 -2.14400 0.30300
C 0.17300 -3.13600 -0.68800
C 0.17300 -4.43800 0.00400
C 0.13300 -4.11100 1.35800
C 0.08300 -2.69500 1.50200
C 0.14900 -5.71500 -0.62300
C 0.09600 -4.62900 2.71600
O 0.20800 -5.74700 3.22100
C -0.25500 -3.42800 3.70100
C 0.71700 -3.48200 4.84800
O 1.93100 -3.25500 4.66900
O 0.03800 -3.55600 6.00300
C 0.94300 -3.58300 7.18300
H -1.85900 3.22000 2.49700
H -0.21800 2.45300 -3.47400
H 0.27600 -3.74700 -2.60500
H -1.55400 -0.94900 5.13200
H -1.58500 1.83100 4.66500
H -3.48400 -0.37700 3.96900
H -3.51100 1.02700 2.85800
H -3.85200 1.30100 4.54300
H 0.66900 1.09600 4.96600
H 1.13000 -0.63900 5.18900
H -0.84400 0.02600 7.12500
H 0.06200 1.47700 6.92100
H -1.34400 5.18600 1.93800
H -1.65100 5.96300 0.43200
H 0.00700 6.02000 1.08400
H -0.63500 6.74400 -1.40500
H 0.66500 6.97000 -2.70400
H 1.04800 6.46600 -1.03600
H 0.60800 0.50100 -4.89100
H -0.69200 -2.15600 -4.54700
H -1.26700 0.74000 -6.12900
H -2.20400 0.71400 -4.59600
H -1.96700 -0.72000 -5.45300
H 1.35600 -1.75900 -5.96700
H 1.45200 -3.15700 -4.90200
H 2.71400 -0.52200 -4.79800
H 3.48700 -2.12100 -4.52900
H 2.49500 -1.30300 -3.24000
H 0.86700 -6.33300 -0.08400
H 0.40400 -5.64200 -1.68000
H -0.89100 -5.99900 -0.46300
H -1.28300 -3.58100 4.02800
H 0.69800 -4.47800 7.75500
H 0.83300 -2.61900 7.68000
H 2.00000 -3.75400 6.97600
Mg 13.13669 1.18735 1.00746
C 11.10158 -1.32153 2.57045
C 10.51179 3.33395 1.37701
C 14.73018 3.28348 -0.76298
C 15.11352 -1.39480 -0.24568
N 11.12035 0.92310 1.87738
C 10.48058 -0.05724 2.49703
C 9.13143 0.36108 3.14073
C 8.81000 1.63584 2.21849
C 10.23512 2.01682 1.82280
C 8.04086 1.28622 0.95535
C 9.28892 0.76764 4.64802
C 7.97441 0.88945 5.42196
H 7.95417 0.49057 6.82658
N 12.90445 3.14933 0.81974
C 11.77633 3.85914 1.03140
C 12.12087 5.25901 0.73847
C 13.49902 5.29549 0.17804
C 13.76261 3.87779 0.03399
C 11.21075 6.40680 1.06663
C 14.42152 6.42042 -0.18216
O 15.48147 6.22610 -0.87611
C 13.99909 7.76952 0.22155
N 14.56849 0.97292 -0.48463
C 15.13881 2.04860 -1.05522
C 16.32861 1.65317 -1.89688
C 16.58600 0.10740 -1.57761
C 15.39331 -0.15789 -0.63288
C 16.16835 1.84119 -3.40531
C 18.01039 -0.28444 -1.09778
C 18.27421 0.30338 0.26979
N 13.24754 -0.95437 1.26981
C 14.13435 -1.84740 0.62939
C 13.75049 -3.21297 1.04209
C 12.64377 -3.01956 1.88248
C 12.34555 -1.63289 1.97016
C 14.36808 -4.41863 0.60496
C 11.65341 -3.67395 2.70690
O 11.46211 -4.82985 3.08243
C 10.53272 -2.61333 3.08839
C 10.27382 -2.72231 4.56609
O 11.15856 -2.42144 5.38665
O 8.96374 -2.95314 4.76806
C 8.65551 -3.05805 6.21920
H 9.67644 4.02072 1.23765
H 15.37947 3.97192 -1.30882
H 15.74115 -2.24692 -0.51521
H 8.33874 -0.37200 3.05115
H 8.34801 2.43354 2.79434
H 7.93989 0.21869 0.82761
H 8.60755 1.71311 0.13823
H 7.07327 1.79618 0.94986
H 9.63694 1.80710 4.70402
H 9.94731 0.09170 5.15817
H 7.13443 0.43624 4.88162
H 7.70918 1.94722 5.49112
H 10.20078 6.06017 1.31802
H 11.07838 6.98358 0.14486
H 11.62080 7.06231 1.83789
H 13.03267 7.99369 -0.22368
H 14.82890 8.42731 -0.04416
H 13.85539 7.78074 1.30775
H 17.20701 2.22106 -1.61580
H 16.43024 -0.52340 -2.46512
H 16.94668 2.49008 -3.84940
H 15.18271 2.24444 -3.59621
H 16.15808 0.92094 -3.98689
H 18.76465 0.13636 -1.76724
H 18.17424 -1.35626 -1.06122
H 18.59214 1.32521 0.04205
H 19.06018 -0.25018 0.77956
H 17.34969 0.36855 0.85518
H 14.47970 -5.04602 1.47928
H 15.32701 -4.22428 0.12910
H 13.61992 -4.77328 -0.10900
H 9.64552 -2.84782 2.49893
H 8.16123 -4.02244 6.37192
H 8.07521 -2.14965 6.46779
H 9.49118 -3.13782 6.90459

