%nproc=24
%mem=175gb
#p cam-b3lyp/Def2SVP td=(nstates=5)

TDDFT excited states in gaussian

0 1
Mg 13.12992 1.18388 1.00410
C 14.31862 3.47980 3.49303
C 12.54278 -1.02465 3.53634
C 12.50219 -1.01661 -1.19390
C 14.84268 3.08141 -1.36477
N 13.43196 1.32540 3.19065
C 13.83230 2.26926 4.02923
C 13.62918 1.92530 5.52923
C 13.61983 0.32390 5.40960
C 13.13461 0.18934 3.96768
C 15.00429 -0.29499 5.50739
C 12.26678 2.46756 6.08764
C 12.13984 2.43931 7.61238
H 11.40555 3.51687 8.26977
N 12.15450 -0.53805 1.15267
C 11.99455 -1.28956 2.26214
C 11.21997 -2.46754 1.84194
C 11.07728 -2.43125 0.36104
C 11.94246 -1.31385 0.04016
C 10.63074 -3.44435 2.81768
C 10.30184 -3.27214 -0.60735
O 10.51163 -3.21123 -1.87033
C 9.35555 -4.23618 -0.02712
N 13.77286 0.92534 -0.95604
C 13.30600 -0.08609 -1.70902
C 13.69330 0.08877 -3.15809
C 14.31397 1.55895 -3.26251
C 14.25743 1.96388 -1.77313
C 14.69584 -0.92670 -3.70592
C 13.68549 2.51523 -4.31285
C 12.27115 2.86604 -3.91041
N 14.20758 3.05648 0.99502
C 14.86938 3.65446 -0.09975
C 15.55379 4.85998 0.41089
C 15.25934 4.86711 1.78265
C 14.46543 3.73425 2.10795
C 16.36355 5.74450 -0.35594
C 15.44845 5.56964 3.03141
O 15.95965 6.64034 3.35700
C 14.95330 4.63440 4.21739
C 14.08033 5.45753 5.12453
O 12.99267 5.90474 4.72006
O 14.56714 5.39820 6.37748
C 13.72869 6.19033 7.31628
H 12.53382 -1.87060 4.22422
H 12.22413 -1.68597 -2.01129
H 15.31618 3.77953 -2.05839
H 14.43315 2.24475 6.18143
H 12.90305 -0.11928 6.09603
H 15.78082 0.45528 5.52287
H 15.10625 -0.92707 4.63497
H 15.05831 -0.96319 6.37165
H 11.46559 1.76694 5.81939
H 12.07518 3.45961 5.72740
H 13.10710 2.27795 8.10361
H 11.54671 1.56622 7.89510
H 11.04159 -3.30402 3.82511
H 10.97524 -4.44069 2.52021
H 9.53871 -3.43329 2.81731
H 9.89119 -4.91722 0.62993
H 8.83256 -4.67976 -0.87659
H 8.64095 -3.69106 0.59961
H 12.82367 0.02798 -3.80086
H 15.37774 1.53330 -3.54102
H 14.32248 -1.47442 -4.59174
H 14.95145 -1.61625 -2.91236
H 15.66708 -0.51654 -3.97733
H 13.61780 2.01906 -5.28413
H 14.25084 3.42986 -4.45716
H 11.69077 2.01648 -4.28254
H 11.95785 3.79511 -4.38235
H 12.16556 2.88484 -2.81947
H 16.09083 6.74952 -0.06258
H 16.22169 5.58878 -1.42337
H 17.35835 5.43491 -0.02459
H 15.83953 4.25997 4.73118
H 14.39240 6.90589 7.81140
H 13.21801 5.44886 7.95907
H 12.98558 6.85262 6.88777

