%nproc=24
%mem=175gb
#p cam-b3lyp/Def2SVP td=(nstates=5)

TDDFT excited states in gaussian

0 1
Mg 0.00000 0.00000 0.00000
C -0.21700 -2.21800 2.80100
C -1.25500 2.44200 2.02600
C -0.24500 1.85000 -2.56400
C 0.14600 -2.82400 -2.03700
N -0.61700 -0.00900 2.12600
C -0.59400 -0.90800 3.10500
C -0.93600 -0.30900 4.50200
C -1.77300 0.96400 4.03200
C -1.15500 1.16800 2.66000
C -3.26300 0.68500 3.86300
C 0.34500 0.11000 5.29900
C 0.12400 0.39700 6.78700
H 1.16800 0.03300 7.73300
N -0.18500 1.96100 -0.15200
C -0.70300 2.80000 0.77700
C -0.62000 4.15600 0.19300
C -0.18700 4.01500 -1.22500
C -0.21400 2.58300 -1.38000
C -0.88700 5.40600 0.97400
C 0.18100 5.01300 -2.27700
O 0.30300 4.69000 -3.50800
C 0.31000 6.41400 -1.83700
N -0.26500 -0.41300 -2.02900
C -0.27900 0.56900 -2.93700
C -0.19600 0.02400 -4.33200
C 0.12400 -1.53300 -4.18000
C 0.08600 -1.63200 -2.63500
C -1.45100 0.20500 -5.19700
C 1.37300 -2.07000 -4.92300
C 2.62600 -1.49000 -4.30600
N 0.15000 -2.14400 0.30300
C 0.17300 -3.13600 -0.68800
C 0.17300 -4.43800 0.00400
C 0.13300 -4.11100 1.35800
C 0.08300 -2.69500 1.50200
C 0.14900 -5.71500 -0.62300
C 0.09600 -4.62900 2.71600
O 0.20800 -5.74700 3.22100
C -0.25500 -3.42800 3.70100
C 0.71700 -3.48200 4.84800
O 1.93100 -3.25500 4.66900
O 0.03800 -3.55600 6.00300
C 0.94300 -3.58300 7.18300
H -1.85900 3.22000 2.49700
H -0.21800 2.45300 -3.47400
H 0.27600 -3.74700 -2.60500
H -1.55400 -0.94900 5.13200
H -1.58500 1.83100 4.66500
H -3.48400 -0.37700 3.96900
H -3.51100 1.02700 2.85800
H -3.85200 1.30100 4.54300
H 0.66900 1.09600 4.96600
H 1.13000 -0.63900 5.18900
H -0.84400 0.02600 7.12500
H 0.06200 1.47700 6.92100
H -1.34400 5.18600 1.93800
H -1.65100 5.96300 0.43200
H 0.00700 6.02000 1.08400
H -0.63500 6.74400 -1.40500
H 0.66500 6.97000 -2.70400
H 1.04800 6.46600 -1.03600
H 0.60800 0.50100 -4.89100
H -0.69200 -2.15600 -4.54700
H -1.26700 0.74000 -6.12900
H -2.20400 0.71400 -4.59600
H -1.96700 -0.72000 -5.45300
H 1.35600 -1.75900 -5.96700
H 1.45200 -3.15700 -4.90200
H 2.71400 -0.52200 -4.79800
H 3.48700 -2.12100 -4.52900
H 2.49500 -1.30300 -3.24000
H 0.86700 -6.33300 -0.08400
H 0.40400 -5.64200 -1.68000
H -0.89100 -5.99900 -0.46300
H -1.28300 -3.58100 4.02800
H 0.69800 -4.47800 7.75500
H 0.83300 -2.61900 7.68000
H 2.00000 -3.75400 6.97600
Mg 15.77357 1.42196 1.20491
C 14.78051 -0.68261 3.93689
C 15.26449 4.08879 3.26973
C 16.20590 3.31869 -1.30167
C 15.10513 -1.25777 -0.92063
N 15.10880 1.55758 3.31013
C 14.81925 0.68824 4.26657
C 14.63500 1.31758 5.67353
C 14.24460 2.80811 5.22099
C 14.94261 2.84195 3.86293
C 12.75364 2.99784 4.99656
C 15.95993 1.30091 6.51395
C 15.78213 1.61465 8.00113
H 16.63530 0.92485 8.96485
N 16.21390 3.35512 1.11803
C 15.95580 4.29139 2.05508
C 16.45787 5.56011 1.50513
C 16.88442 5.32562 0.09879
C 16.42185 3.96582 -0.09372
C 16.57181 6.81332 2.32361
C 17.58055 6.18754 -0.91051
O 17.63874 5.86146 -2.14870
C 18.11084 7.46940 -0.42356
N 15.47076 1.15451 -0.83448
C 15.78910 2.12111 -1.71327
C 15.74492 1.60489 -3.13170
C 15.56532 0.02067 -3.00693
C 15.44184 -0.09992 -1.47213
C 14.63357 2.17497 -4.01278
C 16.61170 -0.86585 -3.73620
C 17.96500 -0.71251 -3.08009
N 15.24971 -0.66038 1.44471
C 14.98997 -1.59792 0.42117
C 14.56321 -2.85113 1.07674
C 14.58228 -2.54629 2.44612
C 14.97253 -1.19225 2.62993
C 14.17661 -4.04839 0.41097
C 14.35076 -3.05893 3.77739
O 14.08750 -4.16439 4.24897
C 14.34665 -1.83822 4.79535
C 15.21634 -2.20669 5.96598
O 16.43979 -2.37268 5.81692
O 14.50172 -2.08944 7.09997
C 15.32456 -2.43374 8.29002
H 14.91901 5.00033 3.75821
H 16.44812 3.89701 -2.19629
H 14.97345 -2.16829 -1.50910
H 13.83470 0.88628 6.26282
H 14.67489 3.54932 5.88943
H 12.21409 2.06487 5.06421
H 12.65680 3.41985 4.00480
H 12.36186 3.75236 5.68471
H 16.58403 2.15306 6.21546
H 16.47117 0.36473 6.40074
H 14.73135 1.56134 8.31089
H 16.05909 2.65790 8.17122
H 16.02841 6.72487 3.27245
H 16.04011 7.60071 1.77848
H 17.60749 7.12532 2.47424
H 17.29968 8.05987 -0.00423
H 18.65029 7.90228 -1.26824
H 18.81091 7.26994 0.39542
H 16.67369 1.81365 -3.64832
H 14.60564 -0.31492 -3.42672
H 15.01101 2.65573 -4.93499
H 14.05899 2.87848 -3.42500
H 13.87490 1.45766 -4.32112
H 16.72995 -0.53786 -4.77186
H 16.34560 -1.91733 -3.75978
H 18.36082 0.19761 -3.54062
H 18.59600 -1.57177 -3.29815
H 17.86203 -0.52040 -2.00578
H 14.64350 -4.86581 0.94419
H 14.47302 -4.03470 -0.63580
H 13.09117 -3.99648 0.53094
H 13.31204 -1.66335 5.09299
H 14.79121 -3.22220 8.82996
H 15.48967 -1.47976 8.82520
H 16.28344 -2.90786 8.11619

