%nproc=24
%mem=175gb
#p cam-b3lyp/Def2SVP td=(nstates=5)

TDDFT excited states in gaussian

0 1
Mg 13.13005 1.18490 1.00401
C 14.56531 3.28864 3.53252
C 12.23784 -0.95726 3.50396
C 12.25950 -0.89751 -1.22604
C 15.09775 2.87552 -1.32314
N 13.41927 1.26578 3.19537
C 13.92405 2.14354 4.04923
C 13.66008 1.81304 5.54276
C 13.45138 0.22677 5.40478
C 12.97173 0.16846 3.95591
C 14.74587 -0.56208 5.51147
C 12.36942 2.51662 6.09156
C 12.22031 2.48949 7.61432
H 11.61864 3.64421 8.27544
N 11.94442 -0.40224 1.12167
C 11.67715 -1.13862 2.22057
C 10.76636 -2.20576 1.77805
C 10.64842 -2.13722 0.29612
C 11.65105 -1.13425 -0.00199
C 10.04669 -3.11039 2.73573
C 9.78613 -2.86445 -0.69068
O 10.01816 -2.81791 -1.95038
C 8.71896 -3.70766 -0.13244
N 13.76064 0.86699 -0.95140
C 13.18029 -0.07030 -1.72120
C 13.60510 0.06881 -3.16362
C 14.40665 1.45034 -3.24410
C 14.38219 1.84445 -1.75095
C 14.47926 -1.05910 -3.71139
C 13.91672 2.48831 -4.29064
C 12.55252 3.01002 -3.90058
N 14.43420 2.90729 1.02873
C 15.17985 3.42817 -0.05144
C 16.00349 4.53307 0.48077
C 15.69462 4.56360 1.84904
C 14.76071 3.53628 2.15222
C 16.92766 5.31639 -0.26652
C 15.95430 5.22445 3.10783
O 16.59158 6.21919 3.45149
C 15.33048 4.34716 4.27728
C 14.55609 5.26444 5.18361
O 13.53844 5.84871 4.77175
O 15.01543 5.13207 6.44133
C 14.27099 6.01394 7.37937
H 12.11394 -1.80213 4.18199
H 11.91019 -1.51854 -2.05416
H 15.66400 3.51545 -2.00324
H 14.48931 2.02252 6.20780
H 12.67588 -0.12962 6.07779
H 15.61014 0.08452 5.54446
H 14.77893 -1.19332 4.63313
H 14.70447 -1.24026 6.36861
H 11.49016 1.92487 5.80611
H 12.30848 3.52838 5.74048
H 13.15327 2.20306 8.11480
H 11.51871 1.69508 7.88019
H 10.45889 -3.03273 3.74937
H 10.26724 -4.13914 2.43091
H 8.96477 -2.96224 2.72289
H 9.15639 -4.45704 0.52294
H 8.15542 -4.07362 -0.99290
H 8.07039 -3.08330 0.49218
H 12.74307 0.12410 -3.81703
H 15.46229 1.29401 -3.51059
H 14.05155 -1.54680 -4.60766
H 14.63608 -1.78308 -2.92286
H 15.49771 -0.77153 -3.96689
H 13.79981 2.01418 -5.26824
H 14.59419 3.32606 -4.41798
H 11.87495 2.24380 -4.28904
H 12.36438 3.97569 -4.36547
H 12.43608 3.03117 -2.81078
H 16.77946 6.34476 0.03511
H 16.78114 5.19026 -1.33722
H 17.87139 4.88103 0.07273
H 16.15602 3.85932 4.79695
H 15.01281 6.63555 7.89025
H 13.66306 5.33619 8.00773
H 13.62244 6.76853 6.94990

