%nproc=24
%mem=175gb
#p cam-b3lyp/Def2SVP td=(nstates=5)

TDDFT excited states in gaussian

0 1
Mg 0.00000 0.00000 0.00000
C -0.21700 -2.21800 2.80100
C -1.25500 2.44200 2.02600
C -0.24500 1.85000 -2.56400
C 0.14600 -2.82400 -2.03700
N -0.61700 -0.00900 2.12600
C -0.59400 -0.90800 3.10500
C -0.93600 -0.30900 4.50200
C -1.77300 0.96400 4.03200
C -1.15500 1.16800 2.66000
C -3.26300 0.68500 3.86300
C 0.34500 0.11000 5.29900
C 0.12400 0.39700 6.78700
H 1.16800 0.03300 7.73300
N -0.18500 1.96100 -0.15200
C -0.70300 2.80000 0.77700
C -0.62000 4.15600 0.19300
C -0.18700 4.01500 -1.22500
C -0.21400 2.58300 -1.38000
C -0.88700 5.40600 0.97400
C 0.18100 5.01300 -2.27700
O 0.30300 4.69000 -3.50800
C 0.31000 6.41400 -1.83700
N -0.26500 -0.41300 -2.02900
C -0.27900 0.56900 -2.93700
C -0.19600 0.02400 -4.33200
C 0.12400 -1.53300 -4.18000
C 0.08600 -1.63200 -2.63500
C -1.45100 0.20500 -5.19700
C 1.37300 -2.07000 -4.92300
C 2.62600 -1.49000 -4.30600
N 0.15000 -2.14400 0.30300
C 0.17300 -3.13600 -0.68800
C 0.17300 -4.43800 0.00400
C 0.13300 -4.11100 1.35800
C 0.08300 -2.69500 1.50200
C 0.14900 -5.71500 -0.62300
C 0.09600 -4.62900 2.71600
O 0.20800 -5.74700 3.22100
C -0.25500 -3.42800 3.70100
C 0.71700 -3.48200 4.84800
O 1.93100 -3.25500 4.66900
O 0.03800 -3.55600 6.00300
C 0.94300 -3.58300 7.18300
H -1.85900 3.22000 2.49700
H -0.21800 2.45300 -3.47400
H 0.27600 -3.74700 -2.60500
H -1.55400 -0.94900 5.13200
H -1.58500 1.83100 4.66500
H -3.48400 -0.37700 3.96900
H -3.51100 1.02700 2.85800
H -3.85200 1.30100 4.54300
H 0.66900 1.09600 4.96600
H 1.13000 -0.63900 5.18900
H -0.84400 0.02600 7.12500
H 0.06200 1.47700 6.92100
H -1.34400 5.18600 1.93800
H -1.65100 5.96300 0.43200
H 0.00700 6.02000 1.08400
H -0.63500 6.74400 -1.40500
H 0.66500 6.97000 -2.70400
H 1.04800 6.46600 -1.03600
H 0.60800 0.50100 -4.89100
H -0.69200 -2.15600 -4.54700
H -1.26700 0.74000 -6.12900
H -2.20400 0.71400 -4.59600
H -1.96700 -0.72000 -5.45300
H 1.35600 -1.75900 -5.96700
H 1.45200 -3.15700 -4.90200
H 2.71400 -0.52200 -4.79800
H 3.48700 -2.12100 -4.52900
H 2.49500 -1.30300 -3.24000
H 0.86700 -6.33300 -0.08400
H 0.40400 -5.64200 -1.68000
H -0.89100 -5.99900 -0.46300
H -1.28300 -3.58100 4.02800
H 0.69800 -4.47800 7.75500
H 0.83300 -2.61900 7.68000
H 2.00000 -3.75400 6.97600
Mg 13.14664 1.17653 0.99533
C 13.17087 1.60783 -2.56732
C 12.60470 -2.14493 0.43964
C 12.67163 0.83392 4.11373
C 12.54881 4.59924 1.26624
N 12.93482 0.00327 -0.86769
C 13.02368 0.26455 -2.16314
C 13.03127 -0.99253 -3.07378
C 12.28277 -2.01135 -2.08350
C 12.65497 -1.37153 -0.74755
C 10.76969 -1.98268 -2.22173
C 14.48487 -1.47981 -3.40788
C 14.57453 -2.50928 -4.53655
H 15.72734 -2.46211 -5.43169
N 13.19074 -0.45114 2.12993
C 12.96980 -1.72317 1.73701
C 13.09750 -2.54667 2.94932
C 13.24895 -1.63916 4.11903
C 13.01705 -0.35522 3.48829
C 13.14898 -4.04647 2.91253
C 13.54003 -1.88701 5.56818
O 13.39131 -0.97002 6.45127
C 13.91443 -3.26030 5.93611
N 12.46923 2.47653 2.46959
C 12.40652 2.09055 3.75606
C 12.15638 3.26838 4.66739
C 12.30551 4.56545 3.74384
C 12.53824 3.87946 2.37978
C 10.79596 3.29351 5.36381
C 13.31761 5.64802 4.20900
C 14.72732 5.10965 4.11808
N 13.08292 2.85653 -0.36173
C 12.78901 4.20030 -0.04240
C 12.75325 4.95208 -1.31361
C 13.00812 3.98140 -2.29409
C 13.16988 2.71051 -1.67914
C 12.46261 6.33860 -1.45222
C 13.16656 3.74102 -3.71035
O 13.22071 4.45379 -4.71173
C 13.15360 2.17151 -3.96109
C 14.30681 1.83628 -4.86676
O 15.47896 1.99418 -4.48239
O 13.84260 1.18435 -5.94836
C 14.95055 0.82076 -6.87144
H 12.20849 -3.15911 0.38176
H 12.60474 0.79148 5.20332
H 12.46585 5.68815 1.27419
H 12.47026 -0.88960 -3.99488
H 12.70070 -3.01202 -2.15660
H 10.44031 -1.19414 -2.88192
H 10.38595 -1.82440 -1.22237
H 10.40106 -2.96390 -2.53422
H 14.86093 -2.08395 -2.57222
H 15.12498 -0.64727 -3.62646
H 13.64316 -2.57179 -5.11238
H 14.68252 -3.50204 -4.09295
H 12.84756 -4.43538 1.93207
H 12.37593 -4.40987 3.59824
H 14.11636 -4.44261 3.22865
H 13.11658 -3.94125 5.64939
H 14.17032 -3.21926 6.99664
H 14.79824 -3.54920 5.35643
H 12.89754 3.31141 5.45602
H 11.35775 5.11738 3.66038
H 10.87097 3.34192 6.46658
H 10.24002 2.41697 5.05861
H 10.13581 4.10361 5.05862
H 13.14819 5.89859 5.25908
H 13.25295 6.57137 3.64310
H 14.83899 4.55133 5.05237
H 15.44552 5.92484 4.05717
H 14.82293 4.39419 3.29308
H 13.17655 6.73705 -2.16076
H 12.52011 6.85440 -0.49597
H 11.43779 6.28629 -1.82942
H 12.19271 1.91963 -4.41145
H 14.70138 1.24091 -7.85076
H 15.04607 -0.27932 -6.80480
H 15.92100 1.26781 -6.69022

