%nproc=24
%mem=175gb
#p cam-b3lyp/Def2SVP td=(nstates=5)

TDDFT excited states in gaussian

0 1
Mg 15.76600 1.42186 1.18736
C 17.97492 -1.06355 -0.16264
C 17.89358 3.77680 -0.06254
C 14.08909 3.61991 2.74428
C 14.46953 -1.05831 3.26429
N 17.65666 1.25417 0.05177
C 18.36707 0.25890 -0.45725
C 19.51851 0.70572 -1.39751
C 19.73478 2.19013 -0.82425
C 18.33378 2.44551 -0.27230
C 20.72141 2.25173 0.32992
C 19.08394 0.72980 -2.90502
C 20.23587 0.85634 -3.90442
H 20.13093 0.15346 -5.18012
N 15.67204 3.38727 0.92866
C 16.61664 4.18238 0.38386
C 16.07448 5.54873 0.44134
C 14.80293 5.51672 1.21392
C 14.81634 4.14701 1.68700
C 16.71315 6.70804 -0.26683
C 13.75546 6.55172 1.49280
O 12.85327 6.37314 2.38554
C 13.87287 7.81844 0.75583
N 14.61587 1.35393 2.91794
C 13.94948 2.43962 3.34821
C 12.97678 2.08277 4.44679
C 12.95449 0.48451 4.49846
C 14.03232 0.18187 3.43446
C 13.30924 2.63195 5.83397
C 11.56902 -0.20473 4.36394
C 11.01824 0.01082 2.97269
N 15.99961 -0.71650 1.38956
C 15.38205 -1.55568 2.34270
C 15.93984 -2.91083 2.15600
C 16.86743 -2.76004 1.11421
C 16.90107 -1.40238 0.69572
C 15.61156 -4.05945 2.92998
C 17.83349 -3.43854 0.28052
O 18.17180 -4.61059 0.12052
C 18.68535 -2.34552 -0.49797
C 18.75164 -2.75210 -1.94462
O 17.72243 -2.77571 -2.64232
O 20.04094 -2.83484 -2.32044
C 20.15828 -3.22443 -3.75092
H 18.60571 4.58858 -0.21346
H 13.41067 4.31580 3.24322
H 14.04579 -1.90624 3.80662
H 20.43279 0.13267 -1.30014
H 19.96418 2.89202 -1.62180
H 21.02599 1.26721 0.65256
H 20.20733 2.76957 1.12905
H 21.57502 2.88133 0.06294
H 18.55354 1.66868 -3.10981
H 18.49084 -0.13134 -3.14437
H 21.20944 0.66273 -3.43792
H 20.29800 1.89681 -4.23242
H 17.72360 6.45990 -0.61443
H 16.86835 7.49333 0.48090
H 16.09076 7.10458 -1.07184
H 14.83687 8.27333 0.97088
H 12.98505 8.39507 1.02254
H 13.86006 7.60092 -0.31801
H 11.98153 2.44074 4.21345
H 13.34088 0.10233 5.45474
H 12.49793 3.24815 6.26541
H 14.22503 3.20380 5.76420
H 13.56247 1.88032 6.57971
H 10.85273 0.24684 5.05472
H 11.59348 -1.26855 4.57528
H 10.55969 1.00195 3.03963
H 10.27927 -0.75046 2.73104
H 11.82633 0.07068 2.23441
H 15.49212 -4.87967 2.23466
H 14.70892 -3.89932 3.51595
H 16.50237 -4.13141 3.55971
H 19.67314 -2.31056 -0.03687
H 20.78895 -4.11805 -3.78797
H 20.52887 -2.32421 -4.27629
H 19.26286 -3.57670 -4.24950

