%nproc=24
%mem=175gb
#p cam-b3lyp/Def2SVP td=(nstates=5)

TDDFT excited states in gaussian

0 1
Mg 0.00000 0.00000 0.00000
C -0.21700 -2.21800 2.80100
C -1.25500 2.44200 2.02600
C -0.24500 1.85000 -2.56400
C 0.14600 -2.82400 -2.03700
N -0.61700 -0.00900 2.12600
C -0.59400 -0.90800 3.10500
C -0.93600 -0.30900 4.50200
C -1.77300 0.96400 4.03200
C -1.15500 1.16800 2.66000
C -3.26300 0.68500 3.86300
C 0.34500 0.11000 5.29900
C 0.12400 0.39700 6.78700
H 1.16800 0.03300 7.73300
N -0.18500 1.96100 -0.15200
C -0.70300 2.80000 0.77700
C -0.62000 4.15600 0.19300
C -0.18700 4.01500 -1.22500
C -0.21400 2.58300 -1.38000
C -0.88700 5.40600 0.97400
C 0.18100 5.01300 -2.27700
O 0.30300 4.69000 -3.50800
C 0.31000 6.41400 -1.83700
N -0.26500 -0.41300 -2.02900
C -0.27900 0.56900 -2.93700
C -0.19600 0.02400 -4.33200
C 0.12400 -1.53300 -4.18000
C 0.08600 -1.63200 -2.63500
C -1.45100 0.20500 -5.19700
C 1.37300 -2.07000 -4.92300
C 2.62600 -1.49000 -4.30600
N 0.15000 -2.14400 0.30300
C 0.17300 -3.13600 -0.68800
C 0.17300 -4.43800 0.00400
C 0.13300 -4.11100 1.35800
C 0.08300 -2.69500 1.50200
C 0.14900 -5.71500 -0.62300
C 0.09600 -4.62900 2.71600
O 0.20800 -5.74700 3.22100
C -0.25500 -3.42800 3.70100
C 0.71700 -3.48200 4.84800
O 1.93100 -3.25500 4.66900
O 0.03800 -3.55600 6.00300
C 0.94300 -3.58300 7.18300
H -1.85900 3.22000 2.49700
H -0.21800 2.45300 -3.47400
H 0.27600 -3.74700 -2.60500
H -1.55400 -0.94900 5.13200
H -1.58500 1.83100 4.66500
H -3.48400 -0.37700 3.96900
H -3.51100 1.02700 2.85800
H -3.85200 1.30100 4.54300
H 0.66900 1.09600 4.96600
H 1.13000 -0.63900 5.18900
H -0.84400 0.02600 7.12500
H 0.06200 1.47700 6.92100
H -1.34400 5.18600 1.93800
H -1.65100 5.96300 0.43200
H 0.00700 6.02000 1.08400
H -0.63500 6.74400 -1.40500
H 0.66500 6.97000 -2.70400
H 1.04800 6.46600 -1.03600
H 0.60800 0.50100 -4.89100
H -0.69200 -2.15600 -4.54700
H -1.26700 0.74000 -6.12900
H -2.20400 0.71400 -4.59600
H -1.96700 -0.72000 -5.45300
H 1.35600 -1.75900 -5.96700
H 1.45200 -3.15700 -4.90200
H 2.71400 -0.52200 -4.79800
H 3.48700 -2.12100 -4.52900
H 2.49500 -1.30300 -3.24000
H 0.86700 -6.33300 -0.08400
H 0.40400 -5.64200 -1.68000
H -0.89100 -5.99900 -0.46300
H -1.28300 -3.58100 4.02800
H 0.69800 -4.47800 7.75500
H 0.83300 -2.61900 7.68000
H 2.00000 -3.75400 6.97600
Mg 13.13371 1.18700 1.00650
C 10.81308 -1.42905 1.81274
C 10.44280 3.24084 0.58775
C 15.11445 3.38369 -0.14183
C 15.49809 -1.29451 0.37601
N 10.95897 0.83531 1.20410
C 10.19717 -0.18249 1.57574
C 8.70024 0.17488 1.77831
C 8.63066 1.46701 0.82730
C 10.09265 1.90289 0.89983
C 8.30295 1.13316 -0.61855
C 8.36910 0.53962 3.26805
C 6.87624 0.59781 3.59931
H 6.43869 0.15562 4.92049
N 12.89586 3.14589 0.79499
C 11.73121 3.81441 0.66104
C 12.09552 5.23239 0.51692
C 13.57690 5.32772 0.41148
C 13.92613 3.92374 0.32807
C 11.08533 6.34151 0.56988
C 14.52178 6.49057 0.37689
O 15.75080 6.34978 0.04144
C 13.94408 7.81325 0.65662
N 14.96326 1.06184 0.02700
C 15.64026 2.17128 -0.31760
C 17.04597 1.83802 -0.75726
C 17.25119 0.29169 -0.40466
C 15.83620 -0.03840 0.11901
C 17.35209 2.06727 -2.23716
C 18.47181 -0.07138 0.48469
C 18.27791 0.48194 1.87811
N 13.24002 -0.95742 1.24784
C 14.31470 -1.80315 0.89585
C 13.87474 -3.19172 1.14233
C 12.55610 -3.05775 1.60249
C 12.19255 -1.68408 1.62098
C 14.64275 -4.36417 0.89408
C 11.38543 -3.76677 2.06672
O 11.13193 -4.93891 2.34163
C 10.16199 -2.75275 2.10346
C 9.46397 -2.91477 3.42597
O 10.04002 -2.61256 4.48589
O 8.16536 -3.19122 3.20786
C 7.42851 -3.34986 4.48993
H 9.66563 3.90596 0.21027
H 15.87368 4.10788 -0.44612
H 16.21039 -2.11858 0.29721
H 8.00257 -0.57876 1.43326
H 7.98330 2.23232 1.24752
H 8.28726 0.06747 -0.79238
H 9.07741 1.60185 -1.21149
H 7.36553 1.61353 -0.91320
H 8.64280 1.58693 3.44960
H 8.86323 -0.13141 3.94347
H 6.26205 0.13617 2.81662
H 6.56234 1.64445 3.60389
H 10.06112 5.95692 0.48936
H 11.22199 6.94200 -0.33599
H 11.21189 6.98517 1.44300
H 13.15445 8.02162 -0.06138
H 14.78957 8.50370 0.67392
H 13.47179 7.78682 1.64499
H 17.77232 2.42336 -0.20688
H 17.40124 -0.31602 -1.30909
H 18.20406 2.75272 -2.40557
H 16.45884 2.44617 -2.71578
H 17.55706 1.16539 -2.81145
H 19.37920 0.39238 0.09007
H 18.65726 -1.13837 0.54895
H 18.61128 1.51943 1.78024
H 18.88873 -0.06293 2.59508
H 17.21607 0.50113 2.14971
H 14.50296 -5.01440 1.74740
H 15.69357 -4.12639 0.74238
H 14.16566 -4.71924 -0.02329
H 9.50971 -2.99581 1.26380
H 6.94850 -4.33300 4.46301
H 6.76550 -2.46748 4.56459
H 8.01421 -3.42527 5.39862

