%nproc=24
%mem=175gb
#p cam-b3lyp/Def2SVP td=(nstates=5)

TDDFT excited states in gaussian

0 1
Mg 0.00000 0.00000 0.00000
C -0.21700 -2.21800 2.80100
C -1.25500 2.44200 2.02600
C -0.24500 1.85000 -2.56400
C 0.14600 -2.82400 -2.03700
N -0.61700 -0.00900 2.12600
C -0.59400 -0.90800 3.10500
C -0.93600 -0.30900 4.50200
C -1.77300 0.96400 4.03200
C -1.15500 1.16800 2.66000
C -3.26300 0.68500 3.86300
C 0.34500 0.11000 5.29900
C 0.12400 0.39700 6.78700
H 1.16800 0.03300 7.73300
N -0.18500 1.96100 -0.15200
C -0.70300 2.80000 0.77700
C -0.62000 4.15600 0.19300
C -0.18700 4.01500 -1.22500
C -0.21400 2.58300 -1.38000
C -0.88700 5.40600 0.97400
C 0.18100 5.01300 -2.27700
O 0.30300 4.69000 -3.50800
C 0.31000 6.41400 -1.83700
N -0.26500 -0.41300 -2.02900
C -0.27900 0.56900 -2.93700
C -0.19600 0.02400 -4.33200
C 0.12400 -1.53300 -4.18000
C 0.08600 -1.63200 -2.63500
C -1.45100 0.20500 -5.19700
C 1.37300 -2.07000 -4.92300
C 2.62600 -1.49000 -4.30600
N 0.15000 -2.14400 0.30300
C 0.17300 -3.13600 -0.68800
C 0.17300 -4.43800 0.00400
C 0.13300 -4.11100 1.35800
C 0.08300 -2.69500 1.50200
C 0.14900 -5.71500 -0.62300
C 0.09600 -4.62900 2.71600
O 0.20800 -5.74700 3.22100
C -0.25500 -3.42800 3.70100
C 0.71700 -3.48200 4.84800
O 1.93100 -3.25500 4.66900
O 0.03800 -3.55600 6.00300
C 0.94300 -3.58300 7.18300
H -1.85900 3.22000 2.49700
H -0.21800 2.45300 -3.47400
H 0.27600 -3.74700 -2.60500
H -1.55400 -0.94900 5.13200
H -1.58500 1.83100 4.66500
H -3.48400 -0.37700 3.96900
H -3.51100 1.02700 2.85800
H -3.85200 1.30100 4.54300
H 0.66900 1.09600 4.96600
H 1.13000 -0.63900 5.18900
H -0.84400 0.02600 7.12500
H 0.06200 1.47700 6.92100
H -1.34400 5.18600 1.93800
H -1.65100 5.96300 0.43200
H 0.00700 6.02000 1.08400
H -0.63500 6.74400 -1.40500
H 0.66500 6.97000 -2.70400
H 1.04800 6.46600 -1.03600
H 0.60800 0.50100 -4.89100
H -0.69200 -2.15600 -4.54700
H -1.26700 0.74000 -6.12900
H -2.20400 0.71400 -4.59600
H -1.96700 -0.72000 -5.45300
H 1.35600 -1.75900 -5.96700
H 1.45200 -3.15700 -4.90200
H 2.71400 -0.52200 -4.79800
H 3.48700 -2.12100 -4.52900
H 2.49500 -1.30300 -3.24000
H 0.86700 -6.33300 -0.08400
H 0.40400 -5.64200 -1.68000
H -0.89100 -5.99900 -0.46300
H -1.28300 -3.58100 4.02800
H 0.69800 -4.47800 7.75500
H 0.83300 -2.61900 7.68000
H 2.00000 -3.75400 6.97600
Mg 10.50418 0.94847 0.79051
C 11.20837 -1.75922 -1.45707
C 11.46084 3.06999 -1.70320
C 10.32564 3.32802 2.88174
C 10.70734 -1.35004 3.40227
N 11.22123 0.58252 -1.26964
C 11.38973 -0.48537 -2.03486
C 11.69601 -0.16827 -3.52322
C 12.30520 1.30557 -3.33464
C 11.59570 1.69961 -2.04081
C 13.80306 1.30938 -3.07823
C 10.40060 -0.14545 -4.40832
C 10.65288 -0.14886 -5.91766
H 9.72089 -0.87314 -6.77748
N 10.36869 2.90686 0.49909
C 10.78691 3.59969 -0.58089
C 10.47831 5.01005 -0.29836
C 9.99422 5.11224 1.10518
C 10.23573 3.75983 1.56645
C 10.57623 6.08849 -1.33797
C 9.42203 6.24369 1.90432
O 9.29061 6.17014 3.17717
C 9.10700 7.47487 1.16510
N 10.72345 1.02945 2.85635
C 10.54311 2.18135 3.52607
C 10.47984 1.94206 5.01575
C 10.41287 0.35412 5.19335
C 10.54476 -0.07169 3.71460
C 11.64971 2.49594 5.82876
C 9.22775 -0.21194 6.02265
C 7.92736 0.01498 5.28586
N 10.70181 -1.19610 0.96324
C 10.79321 -1.95119 2.15301
C 11.03182 -3.35522 1.76035
C 11.08607 -3.31556 0.35893
C 10.91492 -1.97791 -0.08929
C 11.21476 -4.44899 2.65271
C 11.25981 -4.09951 -0.84271
O 11.35650 -5.30091 -1.08971
C 11.47299 -3.10797 -2.06656
C 10.57859 -3.55706 -3.18944
O 9.34164 -3.50715 -3.07081
O 11.32384 -3.76457 -4.29031
C 10.47983 -4.20087 -5.43447
H 11.95312 3.81062 -2.33407
H 10.15974 4.09471 3.64210
H 10.68460 -2.14206 4.15384
H 12.43028 -0.81791 -3.98429
H 12.00815 1.96277 -4.14779
H 14.19193 0.31049 -2.94726
H 13.94585 1.89207 -2.17760
H 14.32035 1.85292 -3.87403
H 9.91133 0.83128 -4.30181
H 9.74780 -0.95622 -4.14924
H 11.68815 -0.41621 -6.16193
H 10.54497 0.87284 -6.28983
H 11.11688 5.74196 -2.22735
H 11.21375 6.87634 -0.92236
H 9.60476 6.51756 -1.59258
H 10.00791 7.84739 0.68337
H 8.62582 8.13537 1.88903
H 8.39986 7.23097 0.36443
H 9.58540 2.38118 5.44031
H 11.30057 -0.03556 5.71294
H 11.33455 3.19337 6.62772
H 12.33772 2.98165 5.14960
H 12.28154 1.74474 6.29961
H 9.14267 0.31996 6.97344
H 9.32640 -1.26772 6.25197
H 7.66953 1.04452 5.55165
H 7.16629 -0.68340 5.62803
H 8.07906 -0.01719 4.20068
H 10.63635 -5.27342 2.25742
H 10.90457 -4.19340 3.66376
H 12.29710 -4.58351 2.57705
H 12.52759 -3.14916 -2.34170
H 10.89392 -5.14792 -5.79408
H 10.47532 -3.35160 -6.14332
H 9.45574 -4.48485 -5.22222

