%nproc=24
%mem=175gb
#p cam-b3lyp/Def2SVP td=(nstates=5)

TDDFT excited states in gaussian

0 1
Mg 0.00000 0.00000 0.00000
C -0.21700 -2.21800 2.80100
C -1.25500 2.44200 2.02600
C -0.24500 1.85000 -2.56400
C 0.14600 -2.82400 -2.03700
N -0.61700 -0.00900 2.12600
C -0.59400 -0.90800 3.10500
C -0.93600 -0.30900 4.50200
C -1.77300 0.96400 4.03200
C -1.15500 1.16800 2.66000
C -3.26300 0.68500 3.86300
C 0.34500 0.11000 5.29900
C 0.12400 0.39700 6.78700
H 1.16800 0.03300 7.73300
N -0.18500 1.96100 -0.15200
C -0.70300 2.80000 0.77700
C -0.62000 4.15600 0.19300
C -0.18700 4.01500 -1.22500
C -0.21400 2.58300 -1.38000
C -0.88700 5.40600 0.97400
C 0.18100 5.01300 -2.27700
O 0.30300 4.69000 -3.50800
C 0.31000 6.41400 -1.83700
N -0.26500 -0.41300 -2.02900
C -0.27900 0.56900 -2.93700
C -0.19600 0.02400 -4.33200
C 0.12400 -1.53300 -4.18000
C 0.08600 -1.63200 -2.63500
C -1.45100 0.20500 -5.19700
C 1.37300 -2.07000 -4.92300
C 2.62600 -1.49000 -4.30600
N 0.15000 -2.14400 0.30300
C 0.17300 -3.13600 -0.68800
C 0.17300 -4.43800 0.00400
C 0.13300 -4.11100 1.35800
C 0.08300 -2.69500 1.50200
C 0.14900 -5.71500 -0.62300
C 0.09600 -4.62900 2.71600
O 0.20800 -5.74700 3.22100
C -0.25500 -3.42800 3.70100
C 0.71700 -3.48200 4.84800
O 1.93100 -3.25500 4.66900
O 0.03800 -3.55600 6.00300
C 0.94300 -3.58300 7.18300
H -1.85900 3.22000 2.49700
H -0.21800 2.45300 -3.47400
H 0.27600 -3.74700 -2.60500
H -1.55400 -0.94900 5.13200
H -1.58500 1.83100 4.66500
H -3.48400 -0.37700 3.96900
H -3.51100 1.02700 2.85800
H -3.85200 1.30100 4.54300
H 0.66900 1.09600 4.96600
H 1.13000 -0.63900 5.18900
H -0.84400 0.02600 7.12500
H 0.06200 1.47700 6.92100
H -1.34400 5.18600 1.93800
H -1.65100 5.96300 0.43200
H 0.00700 6.02000 1.08400
H -0.63500 6.74400 -1.40500
H 0.66500 6.97000 -2.70400
H 1.04800 6.46600 -1.03600
H 0.60800 0.50100 -4.89100
H -0.69200 -2.15600 -4.54700
H -1.26700 0.74000 -6.12900
H -2.20400 0.71400 -4.59600
H -1.96700 -0.72000 -5.45300
H 1.35600 -1.75900 -5.96700
H 1.45200 -3.15700 -4.90200
H 2.71400 -0.52200 -4.79800
H 3.48700 -2.12100 -4.52900
H 2.49500 -1.30300 -3.24000
H 0.86700 -6.33300 -0.08400
H 0.40400 -5.64200 -1.68000
H -0.89100 -5.99900 -0.46300
H -1.28300 -3.58100 4.02800
H 0.69800 -4.47800 7.75500
H 0.83300 -2.61900 7.68000
H 2.00000 -3.75400 6.97600
Mg 31.54033 2.83958 2.38816
C 31.11136 6.22808 1.28676
C 30.98871 1.87876 -0.83785
C 31.46505 -0.16643 3.40094
C 30.92397 3.96169 5.62956
N 31.11670 3.99686 0.55146
C 31.03838 5.28251 0.24273
C 30.95298 5.57440 -1.27947
C 30.35141 4.16550 -1.76110
C 30.87710 3.27752 -0.63512
C 28.83266 4.11949 -1.73619
C 32.36129 5.84542 -1.91604
C 32.32621 6.43893 -3.32610
H 33.35700 7.40283 -3.70139
N 31.75325 1.14062 1.38478
C 31.50618 0.93303 0.07439
C 31.79832 -0.48793 -0.16994
C 32.07976 -1.14052 1.13759
C 31.74933 -0.06179 2.04713
C 31.86986 -1.07868 -1.54810
C 32.55398 -2.51298 1.50861
O 32.50162 -2.93998 2.71598
C 32.99438 -3.37569 0.40259
N 31.03108 1.97803 4.21046
C 31.13631 0.65121 4.40129
C 30.98251 0.29617 5.86097
C 30.99320 1.68971 6.64552
C 31.06485 2.65648 5.44317
C 29.71969 -0.48364 6.22645
C 32.03732 1.84809 7.78456
C 33.43337 1.87362 7.20511
N 31.27923 4.75824 3.34661
C 31.00517 5.00010 4.71060
C 30.79806 6.45499 4.86174
C 30.94443 6.95982 3.56089
C 31.20309 5.89232 2.65920
C 30.46922 7.12708 6.07264
C 30.92841 8.15178 2.74378
O 30.84491 9.35842 2.96915
C 30.91041 7.71641 1.21521
C 31.94668 8.52918 0.48853
O 33.15491 8.39108 0.74875
O 31.36173 9.17220 -0.53848
C 32.35140 9.98326 -1.29648
H 30.60539 1.45702 -1.76741
H 31.53574 -1.17234 3.82119
H 30.82446 4.40197 6.62401
H 30.27948 6.37851 -1.55072
H 30.77358 3.86124 -2.71534
H 28.41012 5.00485 -1.28482
H 28.57439 3.24086 -1.15970
H 28.44428 3.94393 -2.74350
H 32.84900 4.88532 -2.12839
H 32.95501 6.46891 -1.27621
H 31.33128 6.81834 -3.58898
H 32.50544 5.63591 -4.04516
H 31.45467 -0.39652 -2.30021
H 31.19487 -1.94127 -1.56167
H 32.87568 -1.41282 -1.81145
H 32.17842 -3.50003 -0.30537
H 33.38024 -4.28149 0.87432
H 33.80342 -2.86914 -0.13544
H 31.81570 -0.30575 6.20243
H 30.03336 1.88240 7.14692
H 29.93129 -1.44614 6.72934
H 29.14467 -0.64436 5.32420
H 29.01310 0.05160 6.85846
H 31.99646 0.98845 8.45798
H 31.88692 2.73718 8.38780
H 33.67038 0.81220 7.08556
H 34.12457 2.35742 7.89229
H 33.43694 2.32663 6.20690
H 31.08213 8.01781 6.11068
H 30.63730 6.49061 6.93891
H 29.40628 7.32086 5.90569
H 29.90507 7.89985 0.83415
H 31.97465 11.01057 -1.31600
H 32.47288 9.47271 -2.27031
H 33.32928 10.12503 -0.85140

