%nproc=24
%mem=175gb
#p cam-b3lyp/Def2SVP td=(nstates=5)

TDDFT excited states in gaussian

0 1
Mg 0.00000 0.00000 0.00000
C -0.21700 -2.21800 2.80100
C -1.25500 2.44200 2.02600
C -0.24500 1.85000 -2.56400
C 0.14600 -2.82400 -2.03700
N -0.61700 -0.00900 2.12600
C -0.59400 -0.90800 3.10500
C -0.93600 -0.30900 4.50200
C -1.77300 0.96400 4.03200
C -1.15500 1.16800 2.66000
C -3.26300 0.68500 3.86300
C 0.34500 0.11000 5.29900
C 0.12400 0.39700 6.78700
H 1.16800 0.03300 7.73300
N -0.18500 1.96100 -0.15200
C -0.70300 2.80000 0.77700
C -0.62000 4.15600 0.19300
C -0.18700 4.01500 -1.22500
C -0.21400 2.58300 -1.38000
C -0.88700 5.40600 0.97400
C 0.18100 5.01300 -2.27700
O 0.30300 4.69000 -3.50800
C 0.31000 6.41400 -1.83700
N -0.26500 -0.41300 -2.02900
C -0.27900 0.56900 -2.93700
C -0.19600 0.02400 -4.33200
C 0.12400 -1.53300 -4.18000
C 0.08600 -1.63200 -2.63500
C -1.45100 0.20500 -5.19700
C 1.37300 -2.07000 -4.92300
C 2.62600 -1.49000 -4.30600
N 0.15000 -2.14400 0.30300
C 0.17300 -3.13600 -0.68800
C 0.17300 -4.43800 0.00400
C 0.13300 -4.11100 1.35800
C 0.08300 -2.69500 1.50200
C 0.14900 -5.71500 -0.62300
C 0.09600 -4.62900 2.71600
O 0.20800 -5.74700 3.22100
C -0.25500 -3.42800 3.70100
C 0.71700 -3.48200 4.84800
O 1.93100 -3.25500 4.66900
O 0.03800 -3.55600 6.00300
C 0.94300 -3.58300 7.18300
H -1.85900 3.22000 2.49700
H -0.21800 2.45300 -3.47400
H 0.27600 -3.74700 -2.60500
H -1.55400 -0.94900 5.13200
H -1.58500 1.83100 4.66500
H -3.48400 -0.37700 3.96900
H -3.51100 1.02700 2.85800
H -3.85200 1.30100 4.54300
H 0.66900 1.09600 4.96600
H 1.13000 -0.63900 5.18900
H -0.84400 0.02600 7.12500
H 0.06200 1.47700 6.92100
H -1.34400 5.18600 1.93800
H -1.65100 5.96300 0.43200
H 0.00700 6.02000 1.08400
H -0.63500 6.74400 -1.40500
H 0.66500 6.97000 -2.70400
H 1.04800 6.46600 -1.03600
H 0.60800 0.50100 -4.89100
H -0.69200 -2.15600 -4.54700
H -1.26700 0.74000 -6.12900
H -2.20400 0.71400 -4.59600
H -1.96700 -0.72000 -5.45300
H 1.35600 -1.75900 -5.96700
H 1.45200 -3.15700 -4.90200
H 2.71400 -0.52200 -4.79800
H 3.48700 -2.12100 -4.52900
H 2.49500 -1.30300 -3.24000
H 0.86700 -6.33300 -0.08400
H 0.40400 -5.64200 -1.68000
H -0.89100 -5.99900 -0.46300
H -1.28300 -3.58100 4.02800
H 0.69800 -4.47800 7.75500
H 0.83300 -2.61900 7.68000
H 2.00000 -3.75400 6.97600
Mg 13.13316 1.18692 1.00620
C 10.78517 -1.44913 1.65214
C 10.45930 3.22462 0.42924
C 15.16641 3.40314 -0.00458
C 15.55010 -1.27504 0.51339
N 10.95286 0.81939 1.06500
C 10.17650 -0.20554 1.38302
C 8.66729 0.14055 1.49287
C 8.64837 1.43724 0.54572
C 10.09978 1.88267 0.71212
C 8.41452 1.10890 -0.91950
C 8.24064 0.49506 2.96062
C 6.72954 0.54132 3.19768
H 6.21303 0.08911 4.48656
N 12.89511 3.14525 0.78978
C 11.73644 3.80654 0.58618
C 12.09897 5.22771 0.47220
C 13.58334 5.33368 0.46054
C 13.94711 3.93257 0.39236
C 11.07957 6.32963 0.46701
C 14.52021 6.50310 0.49111
O 15.76885 6.37247 0.23288
C 13.91667 7.82031 0.74047
N 15.02147 1.07945 0.14302
C 15.71085 2.19529 -0.15290
C 17.14375 1.87397 -0.50497
C 17.33742 0.32720 -0.14777
C 15.89472 -0.01530 0.28431
C 17.54057 2.11320 -1.96157
C 18.50233 -0.03231 0.81474
C 18.21735 0.51223 2.19592
N 13.23938 -0.95798 1.24321
C 14.34004 -1.79449 0.95532
C 13.89537 -3.18732 1.16684
C 12.54952 -3.06479 1.54387
C 12.17575 -1.69373 1.54621
C 14.68580 -4.35317 0.96160
C 11.35708 -3.78423 1.93012
O 11.09517 -4.95951 2.18279
C 10.12655 -2.77876 1.89487
C 9.34801 -2.95260 3.17008
O 9.85418 -2.65215 4.26559
O 8.06767 -3.23671 2.86943
C 7.25289 -3.40720 4.10186
H 9.70266 3.88645 0.00693
H 15.93808 4.13410 -0.25699
H 16.27179 -2.09381 0.47546
H 7.99806 -0.61596 1.10095
H 7.97047 2.19588 0.92817
H 8.41738 0.04408 -1.09919
H 9.22134 1.58602 -1.46028
H 7.49406 1.58446 -1.27012
H 8.49493 1.54322 3.16416
H 8.69613 -0.17619 3.66246
H 6.16903 0.07970 2.37568
H 6.40852 1.58576 3.18766
H 10.06521 5.93853 0.32039
H 11.26858 6.93588 -0.42552
H 11.14645 6.96947 1.34951
H 13.17223 8.02714 -0.02471
H 14.75447 8.51639 0.81427
H 13.38343 7.78538 1.69706
H 17.82989 2.46128 0.09284
H 17.54832 -0.27463 -1.04395
H 18.39654 2.80532 -2.07273
H 16.67647 2.48856 -2.49352
H 17.78763 1.21582 -2.52626
H 19.42938 0.43972 0.48022
H 18.69097 -1.09834 0.88529
H 18.54880 1.55247 2.12429
H 18.78579 -0.03231 2.94718
H 17.14043 0.52274 2.40035
H 14.49732 -5.00889 1.80125
H 15.74235 -4.10744 0.87741
H 14.26981 -4.70657 0.01433
H 9.53006 -3.02176 1.01468
H 6.78254 -4.39343 4.04000
H 6.58023 -2.52977 4.13904
H 7.78088 -3.48349 5.04518

