%nproc=24
%mem=175gb
#p cam-b3lyp/Def2SVP td=(nstates=5)

TDDFT excited states in gaussian

0 1
Mg 13.14468 1.17902 1.00582
C 10.67408 0.38623 3.48507
C 14.53251 3.30473 3.28395
C 15.06065 2.23317 -1.29314
C 10.95177 -0.09264 -1.38578
N 12.58504 1.69229 3.08323
C 11.66345 1.28193 3.94149
C 11.85753 1.80196 5.39113
C 12.71798 3.11721 5.06160
C 13.35032 2.67199 3.74456
C 11.86262 4.34361 4.79022
C 12.66536 0.79583 6.28395
C 12.62688 1.09358 7.78449
H 12.61285 -0.03018 8.71694
N 14.85632 2.17721 1.11755
C 15.26881 2.97497 2.12488
C 16.58533 3.48954 1.71725
C 16.84278 3.06141 0.31542
C 15.55952 2.47889 -0.02219
C 17.49276 4.23494 2.65233
C 18.04095 3.17109 -0.57821
O 17.96473 2.94467 -1.83747
C 19.28499 3.64187 0.04807
N 12.94348 1.28133 -1.06091
C 13.94771 1.73452 -1.83167
C 13.68135 1.45896 -3.29233
C 12.39683 0.50676 -3.32262
C 12.07539 0.46733 -1.81248
C 13.42465 2.68733 -4.16501
C 12.53682 -0.83989 -4.08394
C 13.50537 -1.74519 -3.35749
N 11.25296 0.13551 1.02873
C 10.49544 -0.28181 -0.08756
C 9.23114 -0.84414 0.42988
C 9.33173 -0.69275 1.82108
C 10.56243 -0.06101 2.14632
C 8.16380 -1.35678 -0.36013
C 8.67199 -0.91407 3.08775
O 7.64422 -1.48957 3.44303
C 9.45599 -0.11068 4.21305
C 9.66628 -1.03394 5.38177
O 10.39323 -2.03699 5.27204
O 9.15418 -0.46665 6.48916
C 9.34823 -1.33979 7.67735
H 14.91137 4.16342 3.83894
H 15.73273 2.47791 -2.11891
H 10.25859 -0.59865 -2.06115
H 10.94206 2.07493 5.90219
H 13.48374 3.28703 5.81403
H 10.81140 4.10019 4.74747
H 12.19987 4.73272 3.83843
H 12.07645 5.12295 5.52726
H 13.73799 0.92949 6.09332
H 12.34482 -0.21248 6.10729
H 11.84258 1.81594 8.04141
H 13.55618 1.59678 8.06236
H 16.96598 4.54258 3.56406
H 17.75562 5.17719 2.15946
H 18.40963 3.68565 2.87664
H 19.12048 4.62437 0.48406
H 20.04895 3.56860 -0.72838
H 19.53683 2.96870 0.87514
H 14.51563 0.93815 -3.74602
H 11.54087 0.99275 -3.81351
H 14.12064 2.76756 -5.02130
H 13.48681 3.56868 -3.54059
H 12.41752 2.76275 -4.57148
H 12.95653 -0.67074 -5.07862
H 11.59464 -1.36118 -4.21634
H 14.48051 -1.40008 -3.71400
H 13.33246 -2.78538 -3.62606
H 13.46985 -1.57225 -2.27560
H 7.83617 -2.27175 0.11527
H 8.47772 -1.53175 -1.38707
H 7.45082 -0.53149 -0.28380
H 8.84954 0.75574 4.47973
H 8.36003 -1.50387 8.11806
H 10.10092 -0.82695 8.30521
H 9.67380 -2.35861 7.50284

