%nproc=24
%mem=175gb
#p cam-b3lyp/Def2SVP td=(nstates=5)

TDDFT excited states in gaussian

0 1
Mg 13.14486 1.18888 1.00406
C 12.84505 -0.46292 4.17593
C 11.89576 3.98315 2.50952
C 12.97245 2.53599 -1.86351
C 13.27182 -1.96631 -0.47050
N 12.49253 1.58498 3.08007
C 12.48212 0.89955 4.21340
C 12.13607 1.74121 5.47094
C 11.31931 2.92250 4.75239
C 11.96164 2.85695 3.36826
C 9.83621 2.62568 4.60523
C 13.41625 2.28654 6.19605
C 13.17014 2.85295 7.59618
H 14.19897 2.66240 8.61484
N 12.99564 3.09984 0.48975
C 12.48357 4.10448 1.23120
C 12.58391 5.31190 0.39679
C 13.04529 4.90798 -0.95920
C 13.00143 3.46494 -0.83358
C 12.33279 6.69256 0.92983
C 13.44585 5.69087 -2.17281
O 13.58400 5.13313 -3.31853
C 13.58056 7.14466 -2.00013
N 12.91206 0.40829 -0.90874
C 12.92220 1.20965 -1.98840
C 13.01653 0.40595 -3.26338
C 13.31260 -1.09673 -2.80309
C 13.24677 -0.90985 -1.27138
C 11.77711 0.42919 -4.15763
C 14.56560 -1.78494 -3.41058
C 15.82083 -1.11303 -2.90235
N 13.25982 -0.85179 1.70442
C 13.27647 -2.02408 0.91732
C 13.24467 -3.17253 1.84602
C 13.18803 -2.58399 3.11838
C 13.16438 -1.16883 2.99083
C 13.22042 -4.54538 1.47079
C 13.13215 -2.83822 4.53998
O 13.21111 -3.84227 5.24665
C 12.77994 -1.47805 5.28313
C 13.73222 -1.31884 6.43653
O 14.94863 -1.15754 6.23421
O 13.02711 -1.16586 7.57221
C 13.92773 -0.99321 8.74307
H 11.30259 4.84201 2.82479
H 13.02396 2.94978 -2.87327
H 13.40762 -2.98201 -0.84810
H 11.50464 1.23900 6.19403
H 11.51958 3.88273 5.22059
H 9.59598 1.61581 4.90285
H 9.60868 2.77574 3.55797
H 9.24718 3.36830 5.15103
H 13.75857 3.19474 5.68347
H 14.17916 1.53375 6.23974
H 12.18503 2.57120 7.98750
H 13.12956 3.94274 7.52745
H 11.84984 6.66198 1.91432
H 11.58697 7.15709 0.27574
H 13.23231 7.31183 0.93581
H 12.63613 7.55601 -1.65183
H 13.95948 7.51830 -2.95338
H 14.31718 7.33659 -1.21199
H 13.83702 0.75291 -3.87942
H 12.48972 -1.77504 -3.07256
H 11.98626 0.78444 -5.18433
H 11.02732 1.05020 -3.68573
H 11.25990 -0.52383 -4.25491
H 14.57079 -1.67090 -4.49737
H 14.62057 -2.84737 -3.19799
H 15.92618 -0.25110 -3.56799
H 16.67441 -1.78273 -2.98567
H 15.67755 -0.72883 -1.88573
H 13.91301 -5.05902 2.12423
H 13.48828 -4.67634 0.42443
H 12.16917 -4.78017 1.65788
H 11.74300 -1.54484 5.61459
H 13.65600 -1.76346 9.47147
H 13.81049 0.06096 9.05727
H 14.98173 -1.20033 8.59949

