%nproc=24
%mem=175gb
#p cam-b3lyp/Def2SVP td=(nstates=5)

TDDFT excited states in gaussian

0 1
Mg 0.00000 0.00000 0.00000
C -0.21700 -2.21800 2.80100
C -1.25500 2.44200 2.02600
C -0.24500 1.85000 -2.56400
C 0.14600 -2.82400 -2.03700
N -0.61700 -0.00900 2.12600
C -0.59400 -0.90800 3.10500
C -0.93600 -0.30900 4.50200
C -1.77300 0.96400 4.03200
C -1.15500 1.16800 2.66000
C -3.26300 0.68500 3.86300
C 0.34500 0.11000 5.29900
C 0.12400 0.39700 6.78700
H 1.16800 0.03300 7.73300
N -0.18500 1.96100 -0.15200
C -0.70300 2.80000 0.77700
C -0.62000 4.15600 0.19300
C -0.18700 4.01500 -1.22500
C -0.21400 2.58300 -1.38000
C -0.88700 5.40600 0.97400
C 0.18100 5.01300 -2.27700
O 0.30300 4.69000 -3.50800
C 0.31000 6.41400 -1.83700
N -0.26500 -0.41300 -2.02900
C -0.27900 0.56900 -2.93700
C -0.19600 0.02400 -4.33200
C 0.12400 -1.53300 -4.18000
C 0.08600 -1.63200 -2.63500
C -1.45100 0.20500 -5.19700
C 1.37300 -2.07000 -4.92300
C 2.62600 -1.49000 -4.30600
N 0.15000 -2.14400 0.30300
C 0.17300 -3.13600 -0.68800
C 0.17300 -4.43800 0.00400
C 0.13300 -4.11100 1.35800
C 0.08300 -2.69500 1.50200
C 0.14900 -5.71500 -0.62300
C 0.09600 -4.62900 2.71600
O 0.20800 -5.74700 3.22100
C -0.25500 -3.42800 3.70100
C 0.71700 -3.48200 4.84800
O 1.93100 -3.25500 4.66900
O 0.03800 -3.55600 6.00300
C 0.94300 -3.58300 7.18300
H -1.85900 3.22000 2.49700
H -0.21800 2.45300 -3.47400
H 0.27600 -3.74700 -2.60500
H -1.55400 -0.94900 5.13200
H -1.58500 1.83100 4.66500
H -3.48400 -0.37700 3.96900
H -3.51100 1.02700 2.85800
H -3.85200 1.30100 4.54300
H 0.66900 1.09600 4.96600
H 1.13000 -0.63900 5.18900
H -0.84400 0.02600 7.12500
H 0.06200 1.47700 6.92100
H -1.34400 5.18600 1.93800
H -1.65100 5.96300 0.43200
H 0.00700 6.02000 1.08400
H -0.63500 6.74400 -1.40500
H 0.66500 6.97000 -2.70400
H 1.04800 6.46600 -1.03600
H 0.60800 0.50100 -4.89100
H -0.69200 -2.15600 -4.54700
H -1.26700 0.74000 -6.12900
H -2.20400 0.71400 -4.59600
H -1.96700 -0.72000 -5.45300
H 1.35600 -1.75900 -5.96700
H 1.45200 -3.15700 -4.90200
H 2.71400 -0.52200 -4.79800
H 3.48700 -2.12100 -4.52900
H 2.49500 -1.30300 -3.24000
H 0.86700 -6.33300 -0.08400
H 0.40400 -5.64200 -1.68000
H -0.89100 -5.99900 -0.46300
H -1.28300 -3.58100 4.02800
H 0.69800 -4.47800 7.75500
H 0.83300 -2.61900 7.68000
H 2.00000 -3.75400 6.97600
Mg 7.88983 0.70949 0.60705
C 7.94198 -2.80135 1.34890
C 6.72124 1.20888 3.77242
C 7.40523 3.75037 -0.15821
C 7.95424 -0.14481 -2.77108
N 7.43213 -0.69423 2.25397
C 7.54944 -2.00016 2.44135
C 7.30554 -2.46479 3.90224
C 6.39274 -1.23897 4.39522
C 6.89914 -0.15835 3.44207
C 4.91050 -1.44943 4.13446
C 8.63560 -2.55948 4.72929
C 8.51206 -3.29889 6.06337
H 9.63949 -4.10828 6.51755
N 7.64223 2.30163 1.76565
C 7.17886 2.32161 3.03300
C 7.16660 3.73678 3.43462
C 7.50442 4.56489 2.24515
C 7.51013 3.55019 1.21053
C 6.93294 4.17895 4.85000
C 7.76498 6.02989 2.06605
O 7.80557 6.56947 0.90414
C 7.87834 6.83052 3.29391
N 7.49262 1.66337 -1.19703
C 7.37727 3.00149 -1.26080
C 7.36804 3.48055 -2.69286
C 7.74599 2.20199 -3.57605
C 7.82437 1.13752 -2.45974
C 6.04748 4.06912 -3.18895
C 8.95140 2.34724 -4.54484
C 10.23233 2.49708 -3.75607
N 8.12474 -1.11089 -0.53273
C 8.09509 -1.24727 -1.93794
C 8.18317 -2.69127 -2.23716
C 8.23518 -3.30119 -0.97471
C 8.16283 -2.30883 0.03993
C 8.15797 -3.27489 -3.53519
C 8.32412 -4.55960 -0.26960
O 8.49714 -5.73141 -0.60225
C 8.01081 -4.30108 1.26708
C 9.06615 -4.99941 2.08018
O 10.25262 -4.63065 2.02617
O 8.47091 -5.83948 2.94639
C 9.47619 -6.54743 3.78308
H 6.13956 1.45655 4.66079
H 7.34780 4.79303 -0.47920
H 8.07886 -0.48573 -3.80109
H 6.76043 -3.39619 3.99769
H 6.61273 -0.97209 5.42563
H 4.72637 -2.33981 3.55182
H 4.57859 -0.57052 3.59743
H 4.35831 -1.45215 5.07860
H 8.90304 -1.55903 5.09304
H 9.41827 -3.00024 4.14297
H 7.57718 -3.86804 6.13416
H 8.43695 -2.55941 6.86433
H 6.54879 3.35904 5.46935
H 6.11544 4.90765 4.82653
H 7.81255 4.64884 5.29515
H 6.96191 6.73721 3.87176
H 8.15318 7.83425 2.96397
H 8.68280 6.41385 3.91023
H 8.11566 4.24863 -2.84853
H 6.91858 1.90415 -4.23675
H 6.14676 5.10212 -3.57251
H 5.33130 4.03146 -2.37888
H 5.54798 3.49287 -3.96589
H 8.84813 3.25497 -5.14444
H 9.05409 1.51586 -5.23423
H 10.25033 3.56417 -3.51506
H 11.09074 2.21483 -4.36229
H 10.17856 1.94629 -2.80983
H 8.92372 -4.03907 -3.54787
H 8.32627 -2.52944 -4.30962
H 7.13624 -3.66343 -3.55453
H 7.01301 -4.69280 1.46839
H 9.29638 -7.61986 3.65961
H 9.36291 -6.13172 4.80196
H 10.51627 -6.47204 3.48811

