%nproc=24
%mem=175gb
#p cam-b3lyp/Def2SVP td=(nstates=5)

TDDFT excited states in gaussian

0 1
Mg 8.94224 0.79752 0.67733
C 9.02877 0.55074 -2.90187
C 8.35633 -2.56204 0.74560
C 8.41336 1.05356 3.79537
C 8.39470 4.21740 0.28956
N 8.74084 -0.70240 -0.93571
C 8.85399 -0.69058 -2.25534
C 8.85579 -2.09649 -2.91335
C 8.07588 -2.90131 -1.76319
C 8.43735 -2.02641 -0.56461
C 6.56579 -2.87998 -1.93197
C 10.30650 -2.65628 -3.12336
C 10.39735 -3.88071 -4.03675
H 11.56456 -4.01734 -4.90360
N 8.94281 -0.58814 2.09808
C 8.70784 -1.90847 1.94710
C 8.80356 -2.49081 3.29465
C 8.95118 -1.38150 4.27564
C 8.74955 -0.23627 3.41084
C 8.83178 -3.97131 3.54116
C 9.21569 -1.35605 5.75063
O 9.06782 -0.28753 6.44289
C 9.56246 -2.64027 6.37674
N 8.26269 2.36008 1.86854
C 8.17385 2.22375 3.20325
C 7.92828 3.55504 3.87240
C 8.11236 4.65327 2.72454
C 8.35537 3.72009 1.51810
C 6.55776 3.72794 4.52673
C 9.13416 5.79109 2.99650
C 10.53639 5.22741 3.03410
N 8.92635 2.19298 -0.97206
C 8.64888 3.57645 -0.91624
C 8.64485 4.07612 -2.30647
C 8.89950 2.93521 -3.08235
C 9.03147 1.80071 -2.23679
C 8.37846 5.41540 -2.70833
C 9.07614 2.43077 -4.42512
O 9.15718 2.94175 -5.54139
C 9.04216 0.84240 -4.37678
C 10.20386 0.32824 -5.18214
O 11.37224 0.54074 -4.81292
O 9.74624 -0.50955 -6.13034
C 10.86252 -1.05426 -6.94829
H 7.94502 -3.56390 0.87201
H 8.32885 1.21765 4.87213
H 8.32893 5.28933 0.09133
H 8.31089 -2.16152 -3.84749
H 8.47895 -3.90309 -1.63937
H 6.25928 -2.22557 -2.73443
H 6.16909 -2.53172 -0.98730
H 6.18652 -3.89771 -2.06128
H 10.65986 -3.09720 -2.18237
H 10.96307 -1.88790 -3.48269
H 9.47418 -4.03859 -4.60751
H 10.48264 -4.77361 -3.41268
H 8.53952 -4.53382 2.64586
H 8.04248 -4.18943 4.26868
H 9.78771 -4.31314 3.94368
H 8.75845 -3.35282 6.20849
H 9.80243 -2.40375 7.41517
H 10.45049 -3.04421 5.87789
H 8.65766 3.73623 4.65232
H 7.17490 5.19162 2.52160
H 6.61636 3.98193 5.60196
H 5.99279 2.81675 4.38149
H 5.91539 4.47449 4.06280
H 8.95242 6.23681 3.97755
H 9.09299 6.59228 2.26616
H 10.62461 4.85340 4.05851
H 11.26830 6.00743 2.83429
H 10.63345 4.36841 2.36006
H 9.10958 5.66440 -3.46593
H 8.42926 6.10107 -1.86510
H 7.35894 5.30608 -3.08766
H 8.08452 0.52251 -4.78931
H 10.63532 -0.82267 -7.99348
H 10.93950 -2.12330 -6.67448
H 11.83700 -0.59345 -6.83656

