%nproc=24
%mem=175gb
#p cam-b3lyp/Def2SVP td=(nstates=5)

TDDFT excited states in gaussian

0 1
Mg 13.13142 1.18504 0.99054
C 13.67453 -1.53860 -1.28232
C 13.94387 3.28743 -1.56964
C 13.10086 3.57604 3.07611
C 13.48268 -1.10201 3.59663
N 13.71507 0.80389 -1.10859
C 13.82787 -0.26892 -1.87717
C 14.04216 0.03868 -3.38349
C 14.67201 1.50905 -3.24144
C 14.04792 1.91448 -1.90772
C 16.18301 1.50344 -3.07964
C 12.69387 0.06638 -4.18560
C 12.85075 0.05377 -5.70776
H 11.86166 -0.66806 -6.50346
N 12.99121 3.14289 0.69774
C 13.34543 3.82742 -0.41007
C 13.06480 5.24131 -0.11625
C 12.67059 5.35383 1.31436
C 12.93141 4.00202 1.76677
C 13.10452 6.31391 -1.16571
C 12.15746 6.49324 2.14180
O 12.10581 6.42688 3.42076
C 11.80498 7.72299 1.41726
N 13.48064 1.27460 3.03807
C 13.35059 2.43103 3.71163
C 13.37944 2.19951 5.20359
C 13.31297 0.61298 5.39354
C 13.34876 0.17899 3.91172
C 14.60184 2.74902 5.93855
C 12.17849 0.05946 6.29866
C 10.83593 0.29201 5.64380
N 13.32493 -0.96000 1.16198
C 13.48578 -1.70988 2.34769
C 13.68968 -3.11748 1.94832
C 13.65602 -3.08509 0.54607
C 13.46614 -1.74847 0.10234
C 13.92090 -4.20814 2.83327
C 13.74856 -3.87614 -0.65990
O 13.82136 -5.07941 -0.90606
C 13.89113 -2.89217 -1.90001
C 12.92489 -3.34039 -2.96208
O 11.69821 -3.28107 -2.76625
O 13.59805 -3.55860 -4.10646
C 12.68085 -3.99449 -5.19300
H 14.40055 4.02143 -2.23414
H 12.98829 4.34762 3.84127
H 13.50184 -1.89014 4.35238
H 14.74156 -0.61843 -3.88630
H 14.32892 2.16435 -4.03783
H 16.57254 0.50247 -2.96802
H 16.38609 2.08952 -2.19290
H 16.65295 2.03937 -3.90926
H 12.21891 1.04709 -4.05379
H 12.05314 -0.73843 -3.88168
H 13.86679 -0.22215 -6.01514
H 12.72662 1.07437 -6.07787
H 13.58584 5.95918 -2.08543
H 13.77225 7.09923 -0.79519
H 12.12191 6.74863 -1.36108
H 12.67634 8.08671 0.87791
H 11.37476 8.39045 2.16644
H 11.04727 7.48021 0.66390
H 12.51646 2.64707 5.68115
H 14.22890 0.21954 5.85842
H 14.34227 3.45260 6.75198
H 15.24909 3.22648 5.21492
H 15.25689 1.99566 6.37278
H 12.15695 0.59661 7.25006
H 12.28417 -0.99586 6.52697
H 10.60233 1.32466 5.91975
H 10.09314 -0.39924 6.03683
H 10.91892 0.25344 4.55143
H 13.31319 -5.03035 2.47950
H 13.67661 -3.94538 3.86042
H 14.99540 -4.35073 2.69049
H 14.92605 -2.94223 -2.24062
H 13.06507 -4.94621 -5.57284
H 12.63758 -3.14869 -5.90469
H 11.67022 -4.27011 -4.91532

