%nproc=24
%mem=175gb
#p cam-b3lyp/Def2SVP td=(nstates=5)

TDDFT excited states in gaussian

0 1
Mg 0.00000 0.00000 0.00000
C -0.21700 -2.21800 2.80100
C -1.25500 2.44200 2.02600
C -0.24500 1.85000 -2.56400
C 0.14600 -2.82400 -2.03700
N -0.61700 -0.00900 2.12600
C -0.59400 -0.90800 3.10500
C -0.93600 -0.30900 4.50200
C -1.77300 0.96400 4.03200
C -1.15500 1.16800 2.66000
C -3.26300 0.68500 3.86300
C 0.34500 0.11000 5.29900
C 0.12400 0.39700 6.78700
H 1.16800 0.03300 7.73300
N -0.18500 1.96100 -0.15200
C -0.70300 2.80000 0.77700
C -0.62000 4.15600 0.19300
C -0.18700 4.01500 -1.22500
C -0.21400 2.58300 -1.38000
C -0.88700 5.40600 0.97400
C 0.18100 5.01300 -2.27700
O 0.30300 4.69000 -3.50800
C 0.31000 6.41400 -1.83700
N -0.26500 -0.41300 -2.02900
C -0.27900 0.56900 -2.93700
C -0.19600 0.02400 -4.33200
C 0.12400 -1.53300 -4.18000
C 0.08600 -1.63200 -2.63500
C -1.45100 0.20500 -5.19700
C 1.37300 -2.07000 -4.92300
C 2.62600 -1.49000 -4.30600
N 0.15000 -2.14400 0.30300
C 0.17300 -3.13600 -0.68800
C 0.17300 -4.43800 0.00400
C 0.13300 -4.11100 1.35800
C 0.08300 -2.69500 1.50200
C 0.14900 -5.71500 -0.62300
C 0.09600 -4.62900 2.71600
O 0.20800 -5.74700 3.22100
C -0.25500 -3.42800 3.70100
C 0.71700 -3.48200 4.84800
O 1.93100 -3.25500 4.66900
O 0.03800 -3.55600 6.00300
C 0.94300 -3.58300 7.18300
H -1.85900 3.22000 2.49700
H -0.21800 2.45300 -3.47400
H 0.27600 -3.74700 -2.60500
H -1.55400 -0.94900 5.13200
H -1.58500 1.83100 4.66500
H -3.48400 -0.37700 3.96900
H -3.51100 1.02700 2.85800
H -3.85200 1.30100 4.54300
H 0.66900 1.09600 4.96600
H 1.13000 -0.63900 5.18900
H -0.84400 0.02600 7.12500
H 0.06200 1.47700 6.92100
H -1.34400 5.18600 1.93800
H -1.65100 5.96300 0.43200
H 0.00700 6.02000 1.08400
H -0.63500 6.74400 -1.40500
H 0.66500 6.97000 -2.70400
H 1.04800 6.46600 -1.03600
H 0.60800 0.50100 -4.89100
H -0.69200 -2.15600 -4.54700
H -1.26700 0.74000 -6.12900
H -2.20400 0.71400 -4.59600
H -1.96700 -0.72000 -5.45300
H 1.35600 -1.75900 -5.96700
H 1.45200 -3.15700 -4.90200
H 2.71400 -0.52200 -4.79800
H 3.48700 -2.12100 -4.52900
H 2.49500 -1.30300 -3.24000
H 0.86700 -6.33300 -0.08400
H 0.40400 -5.64200 -1.68000
H -0.89100 -5.99900 -0.46300
H -1.28300 -3.58100 4.02800
H 0.69800 -4.47800 7.75500
H 0.83300 -2.61900 7.68000
H 2.00000 -3.75400 6.97600
Mg 8.94065 0.81258 0.68039
C 8.41732 1.35997 4.18832
C 7.81034 3.98979 0.16822
C 8.96242 0.21189 -2.43507
C 8.92823 -2.60681 1.35367
N 8.23486 2.37522 2.07763
C 8.13842 2.49131 3.39352
C 7.79718 3.92202 3.88969
C 7.08347 4.47348 2.56101
C 7.77319 3.58613 1.52682
C 5.59157 4.18785 2.51647
C 9.07991 4.75480 4.24055
C 8.81579 6.04484 5.02017
H 9.79092 6.46403 6.02309
N 8.93011 2.05497 -0.86716
C 8.45322 3.31716 -0.89414
C 8.66024 3.79615 -2.26959
C 9.14744 2.65736 -3.09453
C 9.00937 1.56842 -2.14837
C 8.47493 5.23157 -2.66790
C 9.64211 2.56181 -4.50604
O 9.78933 1.43188 -5.09291
C 9.86000 3.83298 -5.21183
N 8.73355 -0.93968 -0.41918
C 8.83484 -0.93056 -1.75991
C 8.92806 -2.33402 -2.30946
C 9.11245 -3.28291 -1.03542
C 8.99954 -2.22638 0.08547
C 7.72774 -2.80901 -3.12801
C 10.34277 -4.23106 -1.03625
C 11.61681 -3.42345 -0.93633
N 8.90183 -0.42372 2.45186
C 8.87597 -1.83453 2.50703
C 8.73734 -2.21218 3.92851
C 8.66847 -0.98489 4.60490
C 8.73755 0.08227 3.66901
C 8.64243 -3.54061 4.43087
C 8.54235 -0.34952 5.89684
O 8.53167 -0.74474 7.06192
C 8.24688 1.19614 5.67315
C 9.16219 1.97913 6.57407
O 10.39313 1.95650 6.39839
O 8.42481 2.79214 7.35231
C 9.28874 3.59770 8.25592
H 7.25990 4.88507 -0.12224
H 9.07825 -0.05157 -3.48894
H 9.01518 -3.65288 1.65511
H 7.10850 3.96088 4.72514
H 7.32477 5.51903 2.38795
H 5.27790 3.55528 3.33355
H 5.41418 3.69712 1.56844
H 5.02919 5.12528 2.48047
H 9.49734 5.17567 3.31677
H 9.79242 4.15229 4.76963
H 7.80080 6.07549 5.43466
H 8.84554 6.88467 4.32172
H 7.95355 5.80115 -1.88871
H 7.78505 5.24082 -3.51869
H 9.41024 5.71006 -2.96610
H 8.93022 4.39633 -5.23649
H 10.29770 3.56149 -6.17442
H 10.57628 4.43275 -4.63925
H 9.79156 -2.44015 -2.95460
H 8.26006 -3.96664 -0.90982
H 7.99782 -3.13403 -4.15050
H 7.00034 -2.00889 -3.16302
H 7.15654 -3.62114 -2.68150
H 10.39679 -4.78057 -1.97926
H 10.32354 -4.96431 -0.23689
H 11.80091 -3.12376 -1.97236
H 12.42978 -4.03639 -0.55235
H 11.45868 -2.50959 -0.35196
H 9.27621 -3.58841 5.30639
H 8.94166 -4.27113 3.68216
H 7.57223 -3.59079 4.64862
H 7.19583 1.36632 5.90958
H 8.94198 3.41357 9.27746
H 9.22513 4.63688 7.88200
H 10.33261 3.31694 8.33308

