%nproc=24
%mem=175gb
#p cam-b3lyp/Def2SVP td=(nstates=5)

TDDFT excited states in gaussian

0 1
Mg 8.94059 0.80839 0.68611
C 8.77290 -1.75185 3.19532
C 7.68659 2.96330 3.01387
C 8.65183 2.97163 -1.61703
C 9.08109 -1.73052 -1.69714
N 8.34682 0.52398 2.79770
C 8.38538 -0.47861 3.66237
C 8.06327 -0.07760 5.12695
C 7.20176 1.24477 4.83027
C 7.80110 1.62890 3.47901
C 5.72069 0.96672 4.63416
C 9.35509 0.25207 5.95431
C 9.14263 0.35013 7.46659
H 10.20663 -0.11754 8.35071
N 8.73869 2.77974 0.79377
C 8.23123 3.49077 1.82245
C 8.28203 4.89949 1.40161
C 8.70791 4.94824 -0.02351
C 8.69563 3.53655 -0.35074
C 8.02156 6.03973 2.34257
C 9.05484 6.07923 -0.94368
O 9.16730 5.90765 -2.20888
C 9.16714 7.41133 -0.33182
N 8.66234 0.65207 -1.36827
C 8.62300 1.74823 -2.14597
C 8.69228 1.38165 -3.60926
C 9.03142 -0.18081 -3.64515
C 9.01053 -0.47916 -2.12992
C 7.42497 1.64588 -4.42197
C 10.27750 -0.61182 -4.46625
C 11.53512 -0.09540 -3.80513
N 9.11662 -1.34479 0.71585
C 9.13076 -2.21490 -0.39626
C 9.15030 -3.59484 0.13083
C 9.12272 -3.43090 1.52397
C 9.06801 -2.04701 1.84235
C 9.14043 -4.78422 -0.65109
C 9.11671 -4.11416 2.79748
O 9.23716 -5.28503 3.15568
C 8.76226 -3.06126 3.93420
C 9.74735 -3.24034 5.05673
O 10.95344 -2.99037 4.88511
O 9.07573 -3.46621 6.20053
C 10.00947 -3.63937 7.34506
H 7.08739 3.66543 3.59426
H 8.66345 3.67893 -2.44953
H 9.22426 -2.57523 -2.37438
H 7.46474 -0.79643 5.67359
H 7.39836 2.01810 5.56828
H 5.50933 -0.09199 4.60952
H 5.45731 1.42716 3.69094
H 5.13514 1.48712 5.39748
H 9.66361 1.28353 5.74065
H 10.13325 -0.45561 5.74387
H 8.17596 -0.06635 7.77488
H 9.07907 1.40608 7.74034
H 7.57068 5.69241 3.28037
H 7.24669 6.66287 1.88309
H 8.90883 6.65164 2.51864
H 8.22652 7.66807 0.14962
H 9.50850 8.07215 -1.13099
H 9.92453 7.37039 0.45894
H 9.48610 1.92508 -4.10690
H 8.21355 -0.76512 -4.09179
H 7.59471 2.30721 -5.29255
H 6.67876 2.06909 -3.76272
H 6.92325 0.75572 -4.79758
H 10.24613 -0.16686 -5.46384
H 10.35946 -1.68591 -4.59514
H 11.60286 0.93283 -4.17288
H 12.39827 -0.68226 -4.11270
H 11.41676 -0.04894 -2.71633
H 9.86304 -5.45532 -0.20616
H 9.37750 -4.57729 -1.69260
H 8.10030 -5.09470 -0.52072
H 7.73779 -3.25635 4.25354
H 9.77569 -4.60455 7.80491
H 9.88212 -2.73795 7.97353
H 11.06218 -3.76230 7.11889

