%nproc=24
%mem=175gb
#p cam-b3lyp/Def2SVP td=(nstates=5)

TDDFT excited states in gaussian

0 1
Mg 10.51382 0.95421 0.80480
C 11.63175 -0.86683 3.68804
C 8.22163 2.46221 2.83123
C 9.21138 2.23618 -1.78897
C 12.06773 -1.47097 -1.15722
N 10.08086 0.74214 2.96347
C 10.61146 0.06514 3.97068
C 10.07046 0.46432 5.36980
C 8.65151 1.06444 4.91670
C 9.00747 1.48456 3.49211
C 7.55098 0.01892 4.84545
C 10.95927 1.55417 6.06568
C 10.66977 1.76628 7.55328
H 11.78548 2.08004 8.44166
N 9.29490 2.50871 0.61417
C 8.44925 2.99861 1.54484
C 7.76249 4.13264 0.90728
C 8.15181 4.16964 -0.52861
C 8.90125 2.93350 -0.63047
C 6.90226 5.09682 1.67133
C 7.88203 5.14839 -1.63110
O 8.11631 4.86178 -2.85821
C 7.24867 6.41665 -1.24141
N 10.43890 0.34741 -1.18229
C 9.85479 1.11596 -2.11827
C 10.16324 0.61218 -3.50804
C 11.27925 -0.51737 -3.31772
C 11.36188 -0.53417 -1.77555
C 8.98022 0.03286 -4.28343
C 12.59472 -0.35039 -4.12663
C 13.36199 0.85047 -3.62202
N 11.80185 -0.74354 1.16070
C 12.31680 -1.64001 0.19880
C 13.04391 -2.69585 0.93293
C 12.88074 -2.35027 2.28291
C 12.08958 -1.17411 2.38393
C 13.69499 -3.81827 0.34780
C 13.18896 -2.71895 3.64591
O 13.89732 -3.57424 4.17547
C 12.28788 -1.84583 4.62168
C 13.17486 -1.29487 5.70437
O 14.07120 -0.47698 5.43194
O 12.68175 -1.65447 6.90350
C 13.52124 -1.12215 8.00972
H 7.31999 2.82433 3.32602
H 8.87842 2.69861 -2.72105
H 12.66205 -2.20836 -1.70102
H 9.92300 -0.36353 6.05295
H 8.38063 1.93150 5.51351
H 7.93331 -0.97949 4.99756
H 7.11986 0.11250 3.85730
H 6.75018 0.26606 5.54828
H 10.68276 2.54296 5.67761
H 12.00143 1.34127 5.92713
H 10.05930 0.95791 7.97376
H 10.04643 2.65716 7.66192
H 6.66836 4.71948 2.67448
H 5.93312 5.13351 1.16213
H 7.32355 6.10391 1.70232
H 6.29727 6.21118 -0.75657
H 7.21851 7.01979 -2.15091
H 7.88215 6.90933 -0.49537
H 10.56721 1.40475 -4.12589
H 10.91245 -1.50820 -3.62358
H 8.80705 0.53434 -5.25431
H 8.09867 0.09740 -3.65953
H 9.04058 -1.03465 -4.48833
H 12.37049 -0.15591 -5.17832
H 13.23775 -1.22343 -4.09054
H 12.88900 1.68468 -4.14877
H 14.41591 0.76763 -3.87975
H 13.19567 1.00133 -2.54907
H 14.64578 -3.92490 0.85290
H 13.82596 -3.68756 -0.72437
H 12.97291 -4.60560 0.58015
H 11.51080 -2.49835 5.02159
H 13.81662 -1.97671 8.62630
H 12.91215 -0.33694 8.49573
H 14.48708 -0.70497 7.74982

