%nproc=24
%mem=175gb
#p cam-b3lyp/Def2SVP td=(nstates=5)

TDDFT excited states in gaussian

0 1
Mg 8.94200 0.80510 0.67151
C 8.51303 4.19361 -0.42989
C 8.39038 -0.15572 -2.55450
C 8.86672 -2.20090 1.68428
C 8.32563 1.92721 3.91291
N 8.51836 1.96238 -1.16519
C 8.44005 3.24803 -1.47393
C 8.35465 3.53993 -2.99612
C 7.75308 2.13102 -3.47776
C 8.27877 1.24305 -2.35178
C 6.23433 2.08502 -3.45285
C 9.76296 3.81094 -3.63269
C 9.72788 4.40446 -5.04275
H 10.75867 5.36835 -5.41805
N 9.15492 -0.89386 -0.33187
C 8.90785 -1.10144 -1.64227
C 9.19999 -2.52240 -1.88659
C 9.48143 -3.17499 -0.57906
C 9.15099 -2.09627 0.33048
C 9.27153 -3.11315 -3.26475
C 9.95565 -4.54745 -0.20804
O 9.90329 -4.97445 0.99933
C 10.39605 -5.41017 -1.31406
N 8.43275 -0.05645 2.49380
C 8.53797 -1.38326 2.68464
C 8.38418 -1.73830 4.14432
C 8.39487 -0.34476 4.92887
C 8.46652 0.62200 3.72652
C 7.12136 -2.51812 4.50980
C 9.43898 -0.18638 6.06791
C 10.83504 -0.16085 5.48846
N 8.68090 2.72377 1.62996
C 8.40684 2.96563 2.99395
C 8.19973 4.42051 3.14509
C 8.34610 4.92534 1.84424
C 8.60476 3.85785 0.94255
C 7.87089 5.09261 4.35599
C 8.33007 6.11731 1.02713
O 8.24657 7.32394 1.25250
C 8.31208 5.68193 -0.50144
C 9.34834 6.49471 -1.22812
O 10.55657 6.35661 -0.96790
O 8.76340 7.13773 -2.25513
C 9.75306 7.94879 -3.01313
H 8.00706 -0.57746 -3.48406
H 8.93741 -3.20682 2.10454
H 8.22613 2.36750 4.90736
H 7.68114 4.34403 -3.26737
H 8.17524 1.82677 -4.43199
H 5.81179 2.97038 -3.00147
H 5.97606 1.20638 -2.87635
H 5.84594 1.90945 -4.46015
H 10.25067 2.85084 -3.84504
H 10.35668 4.43443 -2.99286
H 8.73295 4.78386 -5.30564
H 9.90710 3.60143 -5.76181
H 8.85633 -2.43099 -4.01686
H 8.59654 -3.97575 -3.27832
H 10.27734 -3.44729 -3.52811
H 9.58008 -5.53450 -2.02202
H 10.78190 -6.31596 -0.84233
H 11.20508 -4.90361 -1.85209
H 9.21736 -2.34022 4.48578
H 7.43502 -0.15208 5.43027
H 7.33296 -3.48061 5.01269
H 6.54633 -2.67884 3.60755
H 6.41477 -1.98287 5.14181
H 9.39813 -1.04603 6.74133
H 9.28859 0.70271 6.67115
H 11.07205 -1.22228 5.36891
H 11.52624 0.32295 6.17564
H 10.83861 0.29216 4.49025
H 8.48380 5.98334 4.39402
H 8.03897 4.45613 5.22226
H 6.80795 5.28638 4.18904
H 7.30674 5.86538 -0.88250
H 9.37632 8.97610 -3.03265
H 9.87454 7.43823 -3.98696
H 10.73095 8.09056 -2.56805

