%nproc=24
%mem=175gb
#p cam-b3lyp/Def2SVP td=(nstates=5)

TDDFT excited states in gaussian

0 1
Mg 0.00000 0.00000 0.00000
C -0.21700 -2.21800 2.80100
C -1.25500 2.44200 2.02600
C -0.24500 1.85000 -2.56400
C 0.14600 -2.82400 -2.03700
N -0.61700 -0.00900 2.12600
C -0.59400 -0.90800 3.10500
C -0.93600 -0.30900 4.50200
C -1.77300 0.96400 4.03200
C -1.15500 1.16800 2.66000
C -3.26300 0.68500 3.86300
C 0.34500 0.11000 5.29900
C 0.12400 0.39700 6.78700
H 1.16800 0.03300 7.73300
N -0.18500 1.96100 -0.15200
C -0.70300 2.80000 0.77700
C -0.62000 4.15600 0.19300
C -0.18700 4.01500 -1.22500
C -0.21400 2.58300 -1.38000
C -0.88700 5.40600 0.97400
C 0.18100 5.01300 -2.27700
O 0.30300 4.69000 -3.50800
C 0.31000 6.41400 -1.83700
N -0.26500 -0.41300 -2.02900
C -0.27900 0.56900 -2.93700
C -0.19600 0.02400 -4.33200
C 0.12400 -1.53300 -4.18000
C 0.08600 -1.63200 -2.63500
C -1.45100 0.20500 -5.19700
C 1.37300 -2.07000 -4.92300
C 2.62600 -1.49000 -4.30600
N 0.15000 -2.14400 0.30300
C 0.17300 -3.13600 -0.68800
C 0.17300 -4.43800 0.00400
C 0.13300 -4.11100 1.35800
C 0.08300 -2.69500 1.50200
C 0.14900 -5.71500 -0.62300
C 0.09600 -4.62900 2.71600
O 0.20800 -5.74700 3.22100
C -0.25500 -3.42800 3.70100
C 0.71700 -3.48200 4.84800
O 1.93100 -3.25500 4.66900
O 0.03800 -3.55600 6.00300
C 0.94300 -3.58300 7.18300
H -1.85900 3.22000 2.49700
H -0.21800 2.45300 -3.47400
H 0.27600 -3.74700 -2.60500
H -1.55400 -0.94900 5.13200
H -1.58500 1.83100 4.66500
H -3.48400 -0.37700 3.96900
H -3.51100 1.02700 2.85800
H -3.85200 1.30100 4.54300
H 0.66900 1.09600 4.96600
H 1.13000 -0.63900 5.18900
H -0.84400 0.02600 7.12500
H 0.06200 1.47700 6.92100
H -1.34400 5.18600 1.93800
H -1.65100 5.96300 0.43200
H 0.00700 6.02000 1.08400
H -0.63500 6.74400 -1.40500
H 0.66500 6.97000 -2.70400
H 1.04800 6.46600 -1.03600
H 0.60800 0.50100 -4.89100
H -0.69200 -2.15600 -4.54700
H -1.26700 0.74000 -6.12900
H -2.20400 0.71400 -4.59600
H -1.96700 -0.72000 -5.45300
H 1.35600 -1.75900 -5.96700
H 1.45200 -3.15700 -4.90200
H 2.71400 -0.52200 -4.79800
H 3.48700 -2.12100 -4.52900
H 2.49500 -1.30300 -3.24000
H 0.86700 -6.33300 -0.08400
H 0.40400 -5.64200 -1.68000
H -0.89100 -5.99900 -0.46300
H -1.28300 -3.58100 4.02800
H 0.69800 -4.47800 7.75500
H 0.83300 -2.61900 7.68000
H 2.00000 -3.75400 6.97600
Mg 13.13335 1.17685 1.00507
C 11.92625 3.68487 3.27042
C 14.79926 -0.19453 3.64679
C 14.56967 -0.77592 -1.04216
C 12.33489 3.34624 -1.60297
N 13.26682 1.76045 3.13436
C 12.71586 2.69586 3.89317
C 12.96309 2.51752 5.41522
C 14.30874 1.64439 5.33957
C 14.10388 0.99765 3.97120
C 15.57140 2.48822 5.28482
C 11.80494 1.72798 6.12042
C 11.82638 1.78427 7.64952
H 10.55253 1.81777 8.36271
N 14.07990 -0.53954 1.31593
C 14.67844 -0.94387 2.45590
C 15.24685 -2.26891 2.16377
C 15.07742 -2.54202 0.71070
C 14.57684 -1.25959 0.25806
C 15.80269 -3.16874 3.22903
C 15.33668 -3.75251 -0.13411
O 15.34269 -3.69141 -1.41437
C 15.67543 -4.99121 0.58169
N 13.60995 1.35019 -1.01115
C 14.18647 0.33303 -1.67518
C 14.18227 0.58192 -3.16461
C 13.26251 1.87202 -3.38202
C 12.95308 2.21353 -1.90791
C 15.55055 0.81924 -3.80327
C 12.07481 1.73068 -4.37302
C 11.04455 0.77759 -3.81126
N 12.11943 3.07537 0.81628
C 11.91774 3.82080 -0.36597
C 11.28203 5.09538 0.02611
C 11.17812 5.01212 1.42280
C 11.72981 3.78178 1.87158
C 10.93022 6.15551 -0.85620
C 10.73685 5.68987 2.62057
O 10.11549 6.72590 2.85358
C 11.31635 4.91559 3.88194
C 10.19493 4.72662 4.86644
O 9.22205 4.00474 4.58537
O 10.55675 5.24957 6.05218
C 9.48124 5.07677 7.06472
H 15.53994 -0.57156 4.35258
H 14.95403 -1.46034 -1.80196
H 11.96558 4.03371 -2.36695
H 13.14696 3.43786 5.95646
H 14.33284 0.88752 6.11927
H 15.34889 3.54033 5.18631
H 16.12348 2.13599 4.42332
H 16.20250 2.27909 6.15332
H 11.96158 0.65210 5.96980
H 10.84812 2.05263 5.76025
H 12.49708 2.56722 8.02380
H 12.26285 0.85549 8.02487
H 15.94473 -2.63200 4.17515
H 16.81629 -3.44410 2.91815
H 15.21392 -4.07903 3.36088
H 16.56414 -4.82729 1.18650
H 15.73734 -5.76483 -0.18614
H 14.86147 -5.22782 1.27602
H 13.74499 -0.25489 -3.69530
H 13.83678 2.71832 -3.78679
H 15.77845 0.11155 -4.62260
H 16.30368 0.75963 -3.02882
H 15.70708 1.82043 -4.20117
H 12.41762 1.29685 -5.31558
H 11.59432 2.67437 -4.60876
H 11.44001 -0.20434 -4.08785
H 10.07172 0.95364 -4.26586
H 11.01903 0.82623 -2.71644
H 9.94718 6.49523 -0.55833
H 10.94137 5.82925 -1.89408
H 11.73421 6.86412 -0.64001
H 12.12539 5.51992 4.29402
H 9.24867 6.07172 7.45675
H 9.86535 4.32913 7.78392
H 8.50807 4.75549 6.71236

