%nproc=24
%mem=175gb
#p cam-b3lyp/Def2SVP td=(nstates=5)

TDDFT excited states in gaussian

0 1
Mg 0.00000 0.00000 0.00000
C -0.21700 -2.21800 2.80100
C -1.25500 2.44200 2.02600
C -0.24500 1.85000 -2.56400
C 0.14600 -2.82400 -2.03700
N -0.61700 -0.00900 2.12600
C -0.59400 -0.90800 3.10500
C -0.93600 -0.30900 4.50200
C -1.77300 0.96400 4.03200
C -1.15500 1.16800 2.66000
C -3.26300 0.68500 3.86300
C 0.34500 0.11000 5.29900
C 0.12400 0.39700 6.78700
H 1.16800 0.03300 7.73300
N -0.18500 1.96100 -0.15200
C -0.70300 2.80000 0.77700
C -0.62000 4.15600 0.19300
C -0.18700 4.01500 -1.22500
C -0.21400 2.58300 -1.38000
C -0.88700 5.40600 0.97400
C 0.18100 5.01300 -2.27700
O 0.30300 4.69000 -3.50800
C 0.31000 6.41400 -1.83700
N -0.26500 -0.41300 -2.02900
C -0.27900 0.56900 -2.93700
C -0.19600 0.02400 -4.33200
C 0.12400 -1.53300 -4.18000
C 0.08600 -1.63200 -2.63500
C -1.45100 0.20500 -5.19700
C 1.37300 -2.07000 -4.92300
C 2.62600 -1.49000 -4.30600
N 0.15000 -2.14400 0.30300
C 0.17300 -3.13600 -0.68800
C 0.17300 -4.43800 0.00400
C 0.13300 -4.11100 1.35800
C 0.08300 -2.69500 1.50200
C 0.14900 -5.71500 -0.62300
C 0.09600 -4.62900 2.71600
O 0.20800 -5.74700 3.22100
C -0.25500 -3.42800 3.70100
C 0.71700 -3.48200 4.84800
O 1.93100 -3.25500 4.66900
O 0.03800 -3.55600 6.00300
C 0.94300 -3.58300 7.18300
H -1.85900 3.22000 2.49700
H -0.21800 2.45300 -3.47400
H 0.27600 -3.74700 -2.60500
H -1.55400 -0.94900 5.13200
H -1.58500 1.83100 4.66500
H -3.48400 -0.37700 3.96900
H -3.51100 1.02700 2.85800
H -3.85200 1.30100 4.54300
H 0.66900 1.09600 4.96600
H 1.13000 -0.63900 5.18900
H -0.84400 0.02600 7.12500
H 0.06200 1.47700 6.92100
H -1.34400 5.18600 1.93800
H -1.65100 5.96300 0.43200
H 0.00700 6.02000 1.08400
H -0.63500 6.74400 -1.40500
H 0.66500 6.97000 -2.70400
H 1.04800 6.46600 -1.03600
H 0.60800 0.50100 -4.89100
H -0.69200 -2.15600 -4.54700
H -1.26700 0.74000 -6.12900
H -2.20400 0.71400 -4.59600
H -1.96700 -0.72000 -5.45300
H 1.35600 -1.75900 -5.96700
H 1.45200 -3.15700 -4.90200
H 2.71400 -0.52200 -4.79800
H 3.48700 -2.12100 -4.52900
H 2.49500 -1.30300 -3.24000
H 0.86700 -6.33300 -0.08400
H 0.40400 -5.64200 -1.68000
H -0.89100 -5.99900 -0.46300
H -1.28300 -3.58100 4.02800
H 0.69800 -4.47800 7.75500
H 0.83300 -2.61900 7.68000
H 2.00000 -3.75400 6.97600
Mg 31.53566 2.84366 2.40422
C 30.40158 0.50987 4.88340
C 29.51105 5.16134 3.87524
C 32.16544 4.78842 -0.02245
C 32.54799 0.11000 0.49425
N 30.18055 2.73031 4.14867
C 29.87769 1.80874 5.05051
C 29.02648 2.32820 6.24012
C 28.35528 3.59679 5.51967
C 29.42725 3.87627 4.46827
C 27.05759 3.26451 4.80209
C 29.90952 2.76237 7.46231
C 29.13867 2.98716 8.76501
H 29.78181 2.62644 10.02545
N 31.32681 4.81099 2.24746
C 30.47299 5.59617 2.93720
C 30.69352 6.96339 2.44098
C 31.62997 6.89795 1.28620
C 31.72962 5.46316 1.10862
C 30.10557 8.17467 3.10472
C 32.31164 7.95245 0.46795
O 32.89532 7.67353 -0.63855
C 32.19545 9.33553 0.95279
N 32.05838 2.50066 0.42143
C 32.32832 3.52301 -0.40914
C 32.94556 3.03143 -1.69668
C 33.25792 1.48111 -1.45892
C 32.65932 1.31635 -0.04473
C 32.08529 3.19059 -2.95008
C 34.71849 1.01204 -1.70258
C 35.63492 1.61671 -0.66339
N 31.66657 0.70665 2.69418
C 32.09441 -0.25698 1.75480
C 31.89879 -1.58441 2.37293
C 31.34486 -1.29970 3.63014
C 31.18636 0.10490 3.77667
C 32.17576 -2.83764 1.75744
C 30.84830 -1.86857 4.86243
O 30.81225 -3.00002 5.34438
C 30.09814 -0.72953 5.67865
C 30.58037 -0.78401 7.10238
O 31.76340 -0.51903 7.37957
O 29.52200 -0.92595 7.92096
C 29.94843 -0.97393 9.34492
H 28.74283 5.89597 4.11825
H 32.49964 5.42005 -0.84878
H 32.92995 -0.78687 0.00191
H 28.25816 1.64488 6.58149
H 28.26372 4.43668 6.20346
H 26.86140 2.20262 4.79541
H 27.17724 3.63351 3.79186
H 26.23069 3.83457 5.23521
H 30.28595 3.77874 7.28897
H 30.70243 2.05927 7.62834
H 28.12347 2.57453 8.71968
H 28.98584 4.06106 8.89690
H 29.32853 7.89940 3.82849
H 29.56974 8.73492 2.33085
H 30.86494 8.82234 3.54805
H 31.14490 9.60915 1.01557
H 32.82146 9.93231 0.28657
H 32.59464 9.38365 1.97208
H 33.87416 3.54941 -1.90285
H 32.66591 0.83898 -2.12752
H 32.57977 3.77718 -3.74725
H 31.14847 3.65059 -2.66493
H 31.75571 2.25827 -3.40544
H 35.07323 1.36684 -2.67337
H 34.83306 -0.06674 -1.69248
H 35.84728 2.61013 -1.06972
H 36.54453 1.02760 -0.56549
H 35.11170 1.75541 0.28984
H 32.66833 -3.44828 2.50243
H 32.79319 -2.71681 0.86978
H 31.16133 -3.16223 1.51079
H 29.02741 -0.92223 5.60143
H 29.54808 -1.90077 9.76727
H 29.60018 -0.02445 9.79322
H 31.00680 -1.08903 9.54756

