%nproc=24
%mem=175gb
#p cam-b3lyp/Def2SVP td=(nstates=5)

TDDFT excited states in gaussian

0 1
Mg 0.00000 0.00000 0.00000
C -0.21700 -2.21800 2.80100
C -1.25500 2.44200 2.02600
C -0.24500 1.85000 -2.56400
C 0.14600 -2.82400 -2.03700
N -0.61700 -0.00900 2.12600
C -0.59400 -0.90800 3.10500
C -0.93600 -0.30900 4.50200
C -1.77300 0.96400 4.03200
C -1.15500 1.16800 2.66000
C -3.26300 0.68500 3.86300
C 0.34500 0.11000 5.29900
C 0.12400 0.39700 6.78700
H 1.16800 0.03300 7.73300
N -0.18500 1.96100 -0.15200
C -0.70300 2.80000 0.77700
C -0.62000 4.15600 0.19300
C -0.18700 4.01500 -1.22500
C -0.21400 2.58300 -1.38000
C -0.88700 5.40600 0.97400
C 0.18100 5.01300 -2.27700
O 0.30300 4.69000 -3.50800
C 0.31000 6.41400 -1.83700
N -0.26500 -0.41300 -2.02900
C -0.27900 0.56900 -2.93700
C -0.19600 0.02400 -4.33200
C 0.12400 -1.53300 -4.18000
C 0.08600 -1.63200 -2.63500
C -1.45100 0.20500 -5.19700
C 1.37300 -2.07000 -4.92300
C 2.62600 -1.49000 -4.30600
N 0.15000 -2.14400 0.30300
C 0.17300 -3.13600 -0.68800
C 0.17300 -4.43800 0.00400
C 0.13300 -4.11100 1.35800
C 0.08300 -2.69500 1.50200
C 0.14900 -5.71500 -0.62300
C 0.09600 -4.62900 2.71600
O 0.20800 -5.74700 3.22100
C -0.25500 -3.42800 3.70100
C 0.71700 -3.48200 4.84800
O 1.93100 -3.25500 4.66900
O 0.03800 -3.55600 6.00300
C 0.94300 -3.58300 7.18300
H -1.85900 3.22000 2.49700
H -0.21800 2.45300 -3.47400
H 0.27600 -3.74700 -2.60500
H -1.55400 -0.94900 5.13200
H -1.58500 1.83100 4.66500
H -3.48400 -0.37700 3.96900
H -3.51100 1.02700 2.85800
H -3.85200 1.30100 4.54300
H 0.66900 1.09600 4.96600
H 1.13000 -0.63900 5.18900
H -0.84400 0.02600 7.12500
H 0.06200 1.47700 6.92100
H -1.34400 5.18600 1.93800
H -1.65100 5.96300 0.43200
H 0.00700 6.02000 1.08400
H -0.63500 6.74400 -1.40500
H 0.66500 6.97000 -2.70400
H 1.04800 6.46600 -1.03600
H 0.60800 0.50100 -4.89100
H -0.69200 -2.15600 -4.54700
H -1.26700 0.74000 -6.12900
H -2.20400 0.71400 -4.59600
H -1.96700 -0.72000 -5.45300
H 1.35600 -1.75900 -5.96700
H 1.45200 -3.15700 -4.90200
H 2.71400 -0.52200 -4.79800
H 3.48700 -2.12100 -4.52900
H 2.49500 -1.30300 -3.24000
H 0.86700 -6.33300 -0.08400
H 0.40400 -5.64200 -1.68000
H -0.89100 -5.99900 -0.46300
H -1.28300 -3.58100 4.02800
H 0.69800 -4.47800 7.75500
H 0.83300 -2.61900 7.68000
H 2.00000 -3.75400 6.97600
Mg 15.75888 1.42432 1.20344
C 17.76057 2.78725 3.85197
C 14.03723 -0.29737 3.59223
C 14.27709 -0.13455 -1.12930
C 18.30612 2.32524 -0.99783
N 15.96568 1.33926 3.40395
C 16.72190 1.94756 4.30531
C 16.29262 1.70157 5.77662
C 15.52074 0.30827 5.57216
C 15.11432 0.46650 4.10845
C 16.42837 -0.90510 5.68736
C 15.32975 2.81833 6.31302
C 15.11759 2.81106 7.82850
H 14.95605 4.08985 8.51485
N 14.06855 0.38466 1.22510
C 13.50333 -0.22757 2.28670
C 12.28308 -0.87193 1.77685
C 12.26072 -0.72860 0.29575
C 13.57362 -0.15969 0.06612
C 11.24163 -1.47002 2.67746
C 11.23337 -1.06181 -0.74335
O 11.51869 -1.07353 -1.99287
C 9.90844 -1.46480 -0.24975
N 16.30938 0.94383 -0.74295
C 15.45754 0.30608 -1.56488
C 15.96364 0.31364 -2.98762
C 17.21998 1.30317 -2.99145
C 17.27988 1.64194 -1.48578
C 16.38342 -1.04360 -3.55159
C 17.19066 2.47387 -4.01188
C 16.09918 3.45270 -3.64315
N 17.60313 2.54239 1.33267
C 18.53261 2.77736 0.29588
C 19.68205 3.48679 0.89414
C 19.34918 3.59583 2.25274
C 18.09093 2.97882 2.48855
C 20.86001 3.89154 0.20515
C 19.78096 4.08323 3.54298
O 20.72464 4.76372 3.94315
C 18.82975 3.47000 4.65901
C 18.41013 4.58599 5.57608
O 17.69711 5.51454 5.15655
O 18.73550 4.26277 6.84101
C 18.32934 5.33403 7.78930
H 13.58285 -1.05306 4.23360
H 13.75870 -0.56237 -1.99053
H 19.09604 2.72727 -1.63585
H 17.11216 1.57382 6.47363
H 14.64110 0.24708 6.20766
H 17.46776 -0.62428 5.77075
H 16.26349 -1.48234 4.78700
H 16.10450 -1.54077 6.51644
H 14.30718 2.60014 5.97910
H 15.66018 3.78935 5.99905
H 15.85786 2.18832 8.34536
H 14.16242 2.32556 8.04286
H 11.61071 -1.57476 3.70518
H 11.08063 -2.49975 2.34042
H 10.29173 -0.93263 2.63796
H 10.01157 -2.33848 0.38939
H 9.28628 -1.57576 -1.13996
H 9.50968 -0.66053 0.37854
H 15.21058 0.69919 -3.66391
H 18.15415 0.77470 -3.23205
H 15.84412 -1.31694 -4.47814
H 16.22966 -1.79333 -2.78686
H 17.44594 -1.14621 -3.76541
H 16.94844 2.10038 -5.00987
H 18.13358 3.00515 -4.08693
H 15.20406 3.00047 -4.08058
H 16.29926 4.43063 -4.07635
H 15.95325 3.48877 -2.55731
H 21.08821 4.89430 0.54117
H 20.72225 3.85456 -0.87347
H 21.56221 3.13039 0.55563
H 19.39531 2.69933 5.18416
H 19.22581 5.62520 8.34540
H 17.48895 4.91350 8.37295
H 18.02260 6.28497 7.36969

