%nproc=24
%mem=175gb
#p cam-b3lyp/Def2SVP td=(nstates=5)

TDDFT excited states in gaussian

0 1
Mg 0.00000 0.00000 0.00000
C -0.21700 -2.21800 2.80100
C -1.25500 2.44200 2.02600
C -0.24500 1.85000 -2.56400
C 0.14600 -2.82400 -2.03700
N -0.61700 -0.00900 2.12600
C -0.59400 -0.90800 3.10500
C -0.93600 -0.30900 4.50200
C -1.77300 0.96400 4.03200
C -1.15500 1.16800 2.66000
C -3.26300 0.68500 3.86300
C 0.34500 0.11000 5.29900
C 0.12400 0.39700 6.78700
H 1.16800 0.03300 7.73300
N -0.18500 1.96100 -0.15200
C -0.70300 2.80000 0.77700
C -0.62000 4.15600 0.19300
C -0.18700 4.01500 -1.22500
C -0.21400 2.58300 -1.38000
C -0.88700 5.40600 0.97400
C 0.18100 5.01300 -2.27700
O 0.30300 4.69000 -3.50800
C 0.31000 6.41400 -1.83700
N -0.26500 -0.41300 -2.02900
C -0.27900 0.56900 -2.93700
C -0.19600 0.02400 -4.33200
C 0.12400 -1.53300 -4.18000
C 0.08600 -1.63200 -2.63500
C -1.45100 0.20500 -5.19700
C 1.37300 -2.07000 -4.92300
C 2.62600 -1.49000 -4.30600
N 0.15000 -2.14400 0.30300
C 0.17300 -3.13600 -0.68800
C 0.17300 -4.43800 0.00400
C 0.13300 -4.11100 1.35800
C 0.08300 -2.69500 1.50200
C 0.14900 -5.71500 -0.62300
C 0.09600 -4.62900 2.71600
O 0.20800 -5.74700 3.22100
C -0.25500 -3.42800 3.70100
C 0.71700 -3.48200 4.84800
O 1.93100 -3.25500 4.66900
O 0.03800 -3.55600 6.00300
C 0.94300 -3.58300 7.18300
H -1.85900 3.22000 2.49700
H -0.21800 2.45300 -3.47400
H 0.27600 -3.74700 -2.60500
H -1.55400 -0.94900 5.13200
H -1.58500 1.83100 4.66500
H -3.48400 -0.37700 3.96900
H -3.51100 1.02700 2.85800
H -3.85200 1.30100 4.54300
H 0.66900 1.09600 4.96600
H 1.13000 -0.63900 5.18900
H -0.84400 0.02600 7.12500
H 0.06200 1.47700 6.92100
H -1.34400 5.18600 1.93800
H -1.65100 5.96300 0.43200
H 0.00700 6.02000 1.08400
H -0.63500 6.74400 -1.40500
H 0.66500 6.97000 -2.70400
H 1.04800 6.46600 -1.03600
H 0.60800 0.50100 -4.89100
H -0.69200 -2.15600 -4.54700
H -1.26700 0.74000 -6.12900
H -2.20400 0.71400 -4.59600
H -1.96700 -0.72000 -5.45300
H 1.35600 -1.75900 -5.96700
H 1.45200 -3.15700 -4.90200
H 2.71400 -0.52200 -4.79800
H 3.48700 -2.12100 -4.52900
H 2.49500 -1.30300 -3.24000
H 0.86700 -6.33300 -0.08400
H 0.40400 -5.64200 -1.68000
H -0.89100 -5.99900 -0.46300
H -1.28300 -3.58100 4.02800
H 0.69800 -4.47800 7.75500
H 0.83300 -2.61900 7.68000
H 2.00000 -3.75400 6.97600
Mg 10.51887 0.94372 0.79200
C 10.26387 3.54528 -1.66685
C 10.02905 -1.29056 -1.73836
C 10.28876 -1.33806 2.98470
C 9.84840 3.35814 3.21413
N 10.20052 1.21445 -1.38001
C 10.18469 2.24618 -2.21045
C 10.15881 1.86126 -3.71403
C 9.51522 0.39645 -3.57621
C 9.96869 0.06283 -2.15644
C 7.99583 0.40168 -3.60350
C 11.59621 1.80052 -4.34030
C 11.62947 1.73492 -5.86881
H 12.71014 2.42102 -6.57158
N 10.69304 -1.02565 0.61927
C 10.47860 -1.76755 -0.48747
C 10.71964 -3.16308 -0.08926
C 10.93318 -3.20056 1.38305
C 10.61913 -1.82902 1.72996
C 10.80977 -4.28781 -1.07936
C 11.33889 -4.29354 2.32486
O 11.23145 -4.16202 3.59529
C 11.77775 -5.55648 1.71340
N 9.91817 0.95629 2.78231
C 9.96284 -0.16368 3.52500
C 9.74920 0.14314 4.98808
C 9.79264 1.73762 5.10348
C 9.94133 2.09558 3.60844
C 8.44467 -0.37528 5.59292
C 10.80638 2.34284 6.11280
C 12.21968 2.08496 5.64220
N 10.30701 3.09357 0.82828
C 10.00074 3.90177 1.94502
C 9.84891 5.28609 1.45205
C 10.05634 5.18271 0.06829
C 10.29893 3.82639 -0.27959
C 9.51038 6.41895 2.24460
C 10.11472 5.91096 -1.17868
O 10.07383 7.09974 -1.49313
C 10.12650 4.86449 -2.37498
C 11.21738 5.26367 -3.33056
O 12.41023 5.22135 -2.98138
O 10.69161 5.41965 -4.55922
C 11.73686 5.80500 -5.54450
H 9.65789 -2.05995 -2.41597
H 10.30498 -2.06913 3.79633
H 9.73612 4.18352 3.92040
H 9.52766 2.48801 -4.33258
H 9.95407 -0.29649 -4.28938
H 7.59612 1.40480 -3.59234
H 7.68387 -0.13975 -2.71999
H 7.63213 -0.17835 -4.45651
H 12.05048 0.83049 -4.10068
H 12.19480 2.62336 -4.00082
H 10.65962 1.98909 -6.31349
H 11.79790 0.69756 -6.16804
H 10.44656 -3.98298 -2.06858
H 10.10070 -5.05707 -0.75484
H 11.80874 -4.72630 -1.12892
H 10.97982 -5.95207 1.08948
H 12.11122 -6.18257 2.54327
H 12.62326 -5.34797 1.04839
H 10.54594 -0.27468 5.59119
H 8.82636 2.14895 5.43050
H 8.60081 -1.03514 6.46715
H 7.89192 -0.89254 4.81998
H 7.74130 0.39543 5.90352
H 10.70931 1.85483 7.08572
H 10.67388 3.40777 6.27202
H 12.41654 1.06900 5.99739
H 12.90841 2.79949 6.08845
H 12.27294 2.06753 4.54743
H 10.15784 7.22558 1.92736
H 9.62512 6.21010 3.30620
H 8.46200 6.54800 1.96261
H 9.14189 4.89129 -2.84339
H 11.40339 6.73401 -6.01718
H 11.86756 4.92441 -6.20118
H 12.70540 6.10011 -5.15811

