%nproc=24
%mem=175gb
#p cam-b3lyp/Def2SVP td=(nstates=5)

TDDFT excited states in gaussian

0 1
Mg 0.00000 0.00000 0.00000
C -0.21700 -2.21800 2.80100
C -1.25500 2.44200 2.02600
C -0.24500 1.85000 -2.56400
C 0.14600 -2.82400 -2.03700
N -0.61700 -0.00900 2.12600
C -0.59400 -0.90800 3.10500
C -0.93600 -0.30900 4.50200
C -1.77300 0.96400 4.03200
C -1.15500 1.16800 2.66000
C -3.26300 0.68500 3.86300
C 0.34500 0.11000 5.29900
C 0.12400 0.39700 6.78700
H 1.16800 0.03300 7.73300
N -0.18500 1.96100 -0.15200
C -0.70300 2.80000 0.77700
C -0.62000 4.15600 0.19300
C -0.18700 4.01500 -1.22500
C -0.21400 2.58300 -1.38000
C -0.88700 5.40600 0.97400
C 0.18100 5.01300 -2.27700
O 0.30300 4.69000 -3.50800
C 0.31000 6.41400 -1.83700
N -0.26500 -0.41300 -2.02900
C -0.27900 0.56900 -2.93700
C -0.19600 0.02400 -4.33200
C 0.12400 -1.53300 -4.18000
C 0.08600 -1.63200 -2.63500
C -1.45100 0.20500 -5.19700
C 1.37300 -2.07000 -4.92300
C 2.62600 -1.49000 -4.30600
N 0.15000 -2.14400 0.30300
C 0.17300 -3.13600 -0.68800
C 0.17300 -4.43800 0.00400
C 0.13300 -4.11100 1.35800
C 0.08300 -2.69500 1.50200
C 0.14900 -5.71500 -0.62300
C 0.09600 -4.62900 2.71600
O 0.20800 -5.74700 3.22100
C -0.25500 -3.42800 3.70100
C 0.71700 -3.48200 4.84800
O 1.93100 -3.25500 4.66900
O 0.03800 -3.55600 6.00300
C 0.94300 -3.58300 7.18300
H -1.85900 3.22000 2.49700
H -0.21800 2.45300 -3.47400
H 0.27600 -3.74700 -2.60500
H -1.55400 -0.94900 5.13200
H -1.58500 1.83100 4.66500
H -3.48400 -0.37700 3.96900
H -3.51100 1.02700 2.85800
H -3.85200 1.30100 4.54300
H 0.66900 1.09600 4.96600
H 1.13000 -0.63900 5.18900
H -0.84400 0.02600 7.12500
H 0.06200 1.47700 6.92100
H -1.34400 5.18600 1.93800
H -1.65100 5.96300 0.43200
H 0.00700 6.02000 1.08400
H -0.63500 6.74400 -1.40500
H 0.66500 6.97000 -2.70400
H 1.04800 6.46600 -1.03600
H 0.60800 0.50100 -4.89100
H -0.69200 -2.15600 -4.54700
H -1.26700 0.74000 -6.12900
H -2.20400 0.71400 -4.59600
H -1.96700 -0.72000 -5.45300
H 1.35600 -1.75900 -5.96700
H 1.45200 -3.15700 -4.90200
H 2.71400 -0.52200 -4.79800
H 3.48700 -2.12100 -4.52900
H 2.49500 -1.30300 -3.24000
H 0.86700 -6.33300 -0.08400
H 0.40400 -5.64200 -1.68000
H -0.89100 -5.99900 -0.46300
H -1.28300 -3.58100 4.02800
H 0.69800 -4.47800 7.75500
H 0.83300 -2.61900 7.68000
H 2.00000 -3.75400 6.97600
Mg 31.54062 2.83539 2.38935
C 31.33870 5.10918 -0.37980
C 31.05504 0.30501 0.15418
C 31.26361 0.84965 4.84852
C 30.86905 5.54112 4.48070
N 31.24836 2.83359 0.19690
C 31.25202 3.75277 -0.75675
C 31.23830 3.18204 -2.20023
C 30.57827 1.75194 -1.88710
C 31.01305 1.59555 -0.43136
C 29.05939 1.76712 -1.93295
C 32.68163 3.03031 -2.79672
C 32.73059 2.77268 -4.30437
H 33.82572 3.35537 -5.07485
N 31.69640 0.85848 2.46757
C 31.48623 -0.01481 1.46036
C 31.70866 -1.35125 2.03363
C 31.90601 -1.20513 3.50142
C 31.60235 0.20187 3.66945
C 31.79784 -2.59233 1.19387
C 32.29036 -2.17451 4.57789
O 32.17067 -1.88330 5.82034
C 32.72276 -3.50816 4.13527
N 30.91878 3.10350 4.35500
C 30.94400 2.08549 5.23303
C 30.71785 2.57578 6.64330
C 30.77641 4.17166 6.55792
C 30.94478 4.33741 5.03162
C 29.40166 2.14910 7.29290
C 31.78544 4.89004 7.49519
C 33.20098 4.56254 7.07761
N 31.35046 4.97452 2.15265
C 31.04055 5.91944 3.15524
C 30.90824 7.23205 2.49043
C 31.12940 6.95362 1.13321
C 31.36178 5.56222 0.96145
C 30.57287 8.45855 3.13024
C 31.20861 7.51870 -0.19461
O 31.18330 8.65880 -0.65643
C 31.22247 6.33000 -1.24969
C 32.32757 6.59617 -2.23479
O 33.51612 6.58756 -1.86886
O 31.81662 6.60101 -3.47949
C 32.87627 6.85012 -4.49285
H 30.68328 -0.54018 -0.42575
H 31.26363 0.22635 5.74572
H 30.75768 6.44974 5.07625
H 30.62028 3.73156 -2.90012
H 31.01760 0.97095 -2.50226
H 28.66991 2.76717 -2.05270
H 28.73245 1.34390 -0.99219
H 28.69892 1.08764 -2.71058
H 33.12333 2.09414 -2.43170
H 33.28496 3.88399 -2.55623
H 31.76822 2.97747 -4.78899
H 32.89156 1.70448 -4.46883
H 31.44840 -2.41114 0.16993
H 31.07747 -3.30837 1.60401
H 32.79273 -3.04238 1.21172
H 31.92754 -3.97202 3.55653
H 33.04087 -4.02782 5.04115
H 33.57745 -3.39243 3.45945
H 31.50375 2.23011 7.30359
H 29.81095 4.62938 6.81911
H 29.54165 1.60308 8.24492
H 28.85194 1.54363 6.58455
H 28.70295 2.95894 7.49578
H 31.67295 4.52916 8.52050
H 31.66218 5.96767 7.51773
H 33.38358 3.59762 7.55998
H 33.89218 5.32141 7.43870
H 33.26579 4.40708 5.99442
H 31.23194 9.21311 2.72189
H 30.67408 8.38387 4.21096
H 29.52895 8.56036 2.82179
H 30.24327 6.30638 -1.72946
H 32.55744 7.71521 -5.08247
H 33.00496 5.89281 -5.03206
H 33.84359 7.18292 -4.13509

