%nproc=24
%mem=175gb
#p cam-b3lyp/Def2SVP td=(nstates=5)

TDDFT excited states in gaussian

0 1
Mg 8.92978 0.81204 0.68443
C 11.18454 0.96112 3.47242
C 6.45824 0.06871 2.91457
C 7.01741 0.23118 -1.77988
C 11.71781 0.43284 -1.37197
N 8.94345 0.57434 2.88342
C 9.84591 0.71524 3.84261
C 9.26759 0.66508 5.28226
C 7.93370 -0.17521 4.97642
C 7.73834 0.20177 3.50932
C 8.13718 -1.67885 5.06019
C 8.93190 2.09212 5.84162
C 8.65584 2.14465 7.34588
H 9.09047 3.32192 8.09260
N 6.94968 0.71851 0.58955
C 6.09974 0.42536 1.59600
C 4.75154 0.46586 1.00873
C 4.88596 0.64472 -0.46255
C 6.32134 0.51471 -0.61384
C 3.50106 0.41984 1.83795
C 3.88661 0.87950 -1.55451
O 4.20227 0.76734 -2.79169
C 2.50540 1.15291 -1.13144
N 9.29184 0.18161 -1.26334
C 8.28701 0.05886 -2.14830
C 8.81502 -0.13813 -3.54930
C 10.39036 0.12074 -3.45506
C 10.51933 0.34489 -1.93240
C 8.56151 -1.51236 -4.16866
C 10.98659 1.18867 -4.41251
C 10.48167 2.56199 -4.03245
N 11.07360 0.89547 0.93964
C 12.05923 0.68177 -0.04877
C 13.37171 0.72987 0.62761
C 13.05503 0.94703 1.97707
C 11.64396 1.00836 2.13397
C 14.63643 0.53466 0.00431
C 13.59320 1.12772 3.30614
O 14.72314 1.25564 3.77581
C 12.40200 1.01867 4.35282
C 12.51930 2.17155 5.31179
O 12.36647 3.34068 4.91632
O 12.57578 1.69509 6.56884
C 12.68154 2.80144 7.55708
H 5.66033 -0.39144 3.49809
H 6.40752 0.13212 -2.68083
H 12.63886 0.42129 -1.95867
H 9.88299 0.13721 6.00088
H 7.09833 0.17802 5.57537
H 9.17671 -1.93778 5.19607
H 7.76687 -2.07835 4.12514
H 7.50041 -2.10243 5.84213
H 7.95160 2.40494 5.45966
H 9.70620 2.79114 5.59171
H 8.97406 1.22714 7.85564
H 7.57439 2.17522 7.49936
H 3.71452 0.12027 2.87143
H 2.88408 -0.39369 1.44125
H 2.93099 1.35023 1.79241
H 2.13852 0.32019 -0.53610
H 1.95887 1.38208 -2.04832
H 2.50752 2.03127 -0.47639
H 8.38063 0.58259 -4.23119
H 10.96703 -0.78617 -3.68916
H 8.01141 -1.46427 -5.12738
H 8.02237 -2.11610 -3.45077
H 9.45384 -2.10943 -4.34882
H 10.65229 1.00763 -5.43702
H 12.07136 1.20007 -4.42500
H 9.50618 2.61142 -4.52546
H 11.15211 3.33348 -4.40573
H 10.30904 2.63281 -2.95225
H 15.29927 1.29214 0.40099
H 14.56005 0.59991 -1.07906
H 14.86431 -0.48078 0.33932
H 12.49575 0.05590 4.85667
H 13.57390 2.60701 8.16005
H 11.71056 2.82276 8.08671
H 12.89488 3.79384 7.17750

