%nproc=24
%mem=175gb
#p cam-b3lyp/Def2SVP td=(nstates=5)

TDDFT excited states in gaussian

0 1
Mg 10.52022 0.95034 0.79563
C 12.75991 -1.18094 2.61786
C 11.83185 3.57074 2.54142
C 8.25907 2.78911 -0.45879
C 8.63912 -1.88941 0.05881
N 12.08913 1.05469 2.35124
C 12.91389 0.18820 2.91985
C 14.01492 0.83310 3.80381
C 13.26972 2.21356 4.14714
C 12.36189 2.31232 2.92289
C 12.39358 2.13255 5.38616
C 15.34735 1.08083 3.01308
C 16.55881 1.41959 3.88449
H 17.87108 0.92820 3.47344
N 10.41487 2.92538 0.63219
C 11.02958 3.84027 1.41091
C 10.61467 5.15324 0.89311
C 9.57537 4.93890 -0.15027
C 9.35635 3.51277 -0.01512
C 11.25074 6.43965 1.33354
C 8.88280 5.86643 -1.10223
O 7.84216 5.50499 -1.75740
C 9.40286 7.23967 -1.17471
N 8.60038 0.55121 0.10482
C 7.84633 1.52158 -0.44081
C 6.62187 0.94789 -1.11311
C 6.83549 -0.63702 -1.11477
C 8.16293 -0.71426 -0.32905
C 5.28363 1.28009 -0.45347
C 6.74626 -1.35775 -2.48781
C 7.90743 -0.94536 -3.36360
N 10.74224 -1.17970 1.08143
C 9.82332 -2.18917 0.72001
C 10.36364 -3.46950 1.22126
C 11.55754 -3.11018 1.86467
C 11.73772 -1.70262 1.78856
C 9.73759 -4.74188 1.09784
C 12.70102 -3.60028 2.60016
O 13.13223 -4.71441 2.89431
C 13.46677 -2.35815 3.23034
C 14.93393 -2.52201 2.94208
O 15.35708 -2.47930 1.77344
O 15.61749 -2.48414 4.10040
C 17.07863 -2.63155 3.86550
H 12.01126 4.42779 3.19116
H 7.50192 3.36356 -0.99749
H 8.16104 -2.83228 -0.21529
H 14.23818 0.29405 4.71669
H 13.96950 3.04488 4.17097
H 12.32380 1.12371 5.76499
H 11.41893 2.49042 5.08116
H 12.74858 2.83522 6.14547
H 15.25777 2.01535 2.44439
H 15.57796 0.24364 2.38335
H 16.37977 1.19760 4.94355
H 16.71260 2.50114 3.85963
H 11.86797 6.29722 2.22917
H 10.44145 7.09994 1.66359
H 11.80386 6.93241 0.53110
H 9.35299 7.69719 -0.18950
H 8.83732 7.72459 -1.97277
H 10.46285 7.19830 -1.44920
H 6.54522 1.29322 -2.13682
H 6.07854 -1.15082 -0.50414
H 4.57239 1.78086 -1.13717
H 5.47478 1.89677 0.41470
H 4.75791 0.43008 -0.02184
H 5.83764 -1.05690 -3.01511
H 6.72875 -2.43952 -2.40746
H 7.56661 -0.00001 -3.79631
H 8.08836 -1.69038 -4.13577
H 8.79770 -0.73021 -2.76128
H 10.51126 -5.44345 0.81545
H 8.93323 -4.71986 0.36552
H 9.36216 -4.87412 2.11609
H 13.25792 -2.35330 4.30083
H 17.41594 -3.47778 4.47196
H 17.51891 -1.64230 4.09199
H 17.39882 -2.93893 2.87685

