%nproc=24
%mem=175gb
#p cam-b3lyp/Def2SVP td=(nstates=5)

TDDFT excited states in gaussian

0 1
Mg 15.77503 1.42323 1.19308
C 18.27523 -0.73282 2.60003
C 17.44136 4.03687 2.61676
C 13.35464 3.29491 0.35287
C 13.73454 -1.38358 0.87081
N 17.60969 1.51341 2.42522
C 18.50958 0.63646 2.84414
C 19.76919 1.26846 3.49494
C 19.12848 2.66960 3.94790
C 18.00914 2.77217 2.91386
C 18.49900 2.62461 5.33031
C 20.93411 1.47595 2.46445
C 22.29389 1.79928 3.08752
H 23.49597 1.27341 2.44648
N 15.67909 3.39776 1.01819
C 16.44657 4.30906 1.65206
C 15.96733 5.62391 1.19855
C 14.74676 5.41883 0.37219
C 14.52947 3.99985 0.57057
C 16.69950 6.90163 1.48976
C 13.90593 6.34876 -0.44905
O 12.75404 6.00183 -0.89135
C 14.42960 7.70900 -0.64137
N 13.75231 1.05769 0.88112
C 12.92817 2.03722 0.46973
C 11.58846 1.48198 0.04870
C 11.76729 -0.10717 0.03443
C 13.21684 -0.20342 0.55879
C 10.40444 1.85261 0.94152
C 11.40808 -0.84398 -1.28494
C 12.39204 -0.46922 -2.36973
N 16.00551 -0.70722 1.46896
C 15.01575 -1.70075 1.30356
C 15.61567 -2.98597 1.71675
C 16.91582 -2.64474 2.11882
C 17.10570 -1.24266 1.98602
C 14.95311 -4.24566 1.73477
C 18.16731 -3.15028 2.63544
O 18.62443 -4.26969 2.86280
C 19.06157 -1.91718 3.08949
C 20.44514 -2.11745 2.53437
O 20.64222 -2.09974 1.30659
O 21.33451 -2.07934 3.54330
C 22.72248 -2.26230 3.04145
H 17.75604 4.89831 3.20649
H 12.52110 3.87882 -0.04429
H 13.19538 -2.31916 0.70745
H 20.14931 0.73680 4.35900
H 19.83624 3.48540 3.82586
H 18.48205 1.62271 5.73287
H 17.49153 2.99995 5.20715
H 19.00369 3.32927 5.99744
H 20.75749 2.40455 1.90656
H 21.02623 0.62551 1.81722
H 22.31249 1.59547 4.16504
H 22.46116 2.87671 3.01562
H 17.47095 6.75746 2.25624
H 15.97943 7.58408 1.95412
H 17.10164 7.37122 0.58953
H 14.57434 8.18062 0.32769
H 13.73384 8.19569 -1.32762
H 15.41825 7.64043 -1.10881
H 11.32776 1.81525 -0.94833
H 11.12857 -0.59583 0.78482
H 9.58736 2.35991 0.39461
H 10.76699 2.47641 1.74773
H 9.95271 1.02033 1.47860
H 10.42264 -0.53006 -1.63782
H 11.38505 -1.92393 -1.18407
H 11.99442 0.47762 -2.74719
H 12.41043 -1.22831 -3.14915
H 13.38351 -0.26590 -1.94864
H 15.64633 -4.96796 1.32461
H 14.02620 -4.21553 1.16583
H 14.77293 -4.35592 2.80745
H 19.05744 -1.89342 4.17990
H 23.15118 -3.10766 3.58850
H 23.21649 -1.28016 3.16434
H 22.84547 -2.58988 2.01577

