%nproc=24
%mem=175gb
#p cam-b3lyp/Def2SVP td=(nstates=5)

TDDFT excited states in gaussian

0 1
Mg 0.00000 0.00000 0.00000
C -0.21700 -2.21800 2.80100
C -1.25500 2.44200 2.02600
C -0.24500 1.85000 -2.56400
C 0.14600 -2.82400 -2.03700
N -0.61700 -0.00900 2.12600
C -0.59400 -0.90800 3.10500
C -0.93600 -0.30900 4.50200
C -1.77300 0.96400 4.03200
C -1.15500 1.16800 2.66000
C -3.26300 0.68500 3.86300
C 0.34500 0.11000 5.29900
C 0.12400 0.39700 6.78700
H 1.16800 0.03300 7.73300
N -0.18500 1.96100 -0.15200
C -0.70300 2.80000 0.77700
C -0.62000 4.15600 0.19300
C -0.18700 4.01500 -1.22500
C -0.21400 2.58300 -1.38000
C -0.88700 5.40600 0.97400
C 0.18100 5.01300 -2.27700
O 0.30300 4.69000 -3.50800
C 0.31000 6.41400 -1.83700
N -0.26500 -0.41300 -2.02900
C -0.27900 0.56900 -2.93700
C -0.19600 0.02400 -4.33200
C 0.12400 -1.53300 -4.18000
C 0.08600 -1.63200 -2.63500
C -1.45100 0.20500 -5.19700
C 1.37300 -2.07000 -4.92300
C 2.62600 -1.49000 -4.30600
N 0.15000 -2.14400 0.30300
C 0.17300 -3.13600 -0.68800
C 0.17300 -4.43800 0.00400
C 0.13300 -4.11100 1.35800
C 0.08300 -2.69500 1.50200
C 0.14900 -5.71500 -0.62300
C 0.09600 -4.62900 2.71600
O 0.20800 -5.74700 3.22100
C -0.25500 -3.42800 3.70100
C 0.71700 -3.48200 4.84800
O 1.93100 -3.25500 4.66900
O 0.03800 -3.55600 6.00300
C 0.94300 -3.58300 7.18300
H -1.85900 3.22000 2.49700
H -0.21800 2.45300 -3.47400
H 0.27600 -3.74700 -2.60500
H -1.55400 -0.94900 5.13200
H -1.58500 1.83100 4.66500
H -3.48400 -0.37700 3.96900
H -3.51100 1.02700 2.85800
H -3.85200 1.30100 4.54300
H 0.66900 1.09600 4.96600
H 1.13000 -0.63900 5.18900
H -0.84400 0.02600 7.12500
H 0.06200 1.47700 6.92100
H -1.34400 5.18600 1.93800
H -1.65100 5.96300 0.43200
H 0.00700 6.02000 1.08400
H -0.63500 6.74400 -1.40500
H 0.66500 6.97000 -2.70400
H 1.04800 6.46600 -1.03600
H 0.60800 0.50100 -4.89100
H -0.69200 -2.15600 -4.54700
H -1.26700 0.74000 -6.12900
H -2.20400 0.71400 -4.59600
H -1.96700 -0.72000 -5.45300
H 1.35600 -1.75900 -5.96700
H 1.45200 -3.15700 -4.90200
H 2.71400 -0.52200 -4.79800
H 3.48700 -2.12100 -4.52900
H 2.49500 -1.30300 -3.24000
H 0.86700 -6.33300 -0.08400
H 0.40400 -5.64200 -1.68000
H -0.89100 -5.99900 -0.46300
H -1.28300 -3.58100 4.02800
H 0.69800 -4.47800 7.75500
H 0.83300 -2.61900 7.68000
H 2.00000 -3.75400 6.97600
Mg 8.92401 0.80703 0.67789
C 7.61255 -2.01429 -1.11078
C 7.86976 2.75318 -1.91742
C 10.46099 3.24242 2.00980
C 10.84417 -1.43558 2.52974
N 7.88683 0.31667 -1.21316
C 7.38381 -0.78145 -1.75671
C 6.52232 -0.53518 -3.02429
C 7.15564 0.86963 -3.47626
C 7.63964 1.36840 -2.11625
C 8.36264 0.72028 -4.38742
C 4.99526 -0.39627 -2.69142
C 4.06407 -0.46335 -3.90391
H 2.76180 -1.10512 -3.74672
N 8.72642 2.76101 0.39245
C 8.26010 3.37883 -0.71304
C 8.33393 4.82050 -0.42964
C 9.03547 5.00786 0.86939
C 9.46257 3.64910 1.13669
C 7.70027 5.85669 -1.31179
C 9.29199 6.21295 1.72271
O 10.12844 6.18490 2.69348
C 8.60513 7.45224 1.33046
N 10.58696 0.91463 1.92100
C 11.01677 2.09519 2.40005
C 12.04889 1.90044 3.48502
C 12.04587 0.33345 3.80459
C 11.03190 -0.13995 2.74010
C 13.46952 2.34637 3.13953
C 11.81406 -0.08286 5.28298
C 10.40316 0.26308 5.70142
N 9.06695 -1.34153 0.85486
C 9.95692 -2.07278 1.67175
C 9.75534 -3.50340 1.36332
C 8.77059 -3.50396 0.36394
C 8.40009 -2.16704 0.05593
C 10.47174 -4.58831 1.94285
C 7.96789 -4.33105 -0.50801
O 7.78727 -5.54160 -0.63328
C 7.27331 -3.39801 -1.59123
C 5.81954 -3.77666 -1.66676
O 5.06708 -3.59252 -0.69388
O 5.51110 -4.08911 -2.93862
C 4.07679 -4.46093 -3.06640
H 7.78457 3.42160 -2.77465
H 10.94567 4.04075 2.57657
H 11.33429 -2.20210 3.13382
H 6.64954 -1.27033 -3.80987
H 6.39548 1.53465 -3.87784
H 8.66814 -0.31081 -4.48567
H 9.14981 1.30629 -3.93133
H 8.16316 1.18610 -5.35672
H 4.79370 0.62929 -2.35624
H 4.69571 -1.12640 -1.96491
H 4.57555 -0.84523 -4.79582
H 3.77483 0.55463 -4.17606
H 7.39944 5.43298 -2.27790
H 8.48107 6.58214 -1.56465
H 6.87663 6.38035 -0.82182
H 8.88681 7.71490 0.31354
H 8.84280 8.17767 2.11093
H 7.52549 7.26550 1.31970
H 11.77442 2.44248 4.38166
H 13.00826 -0.13567 3.55245
H 13.87702 3.09268 3.84738
H 13.46826 2.73939 2.13153
H 14.20229 1.54393 3.07372
H 12.47999 0.47812 5.94327
H 11.99076 -1.13723 5.46758
H 10.47840 1.32040 5.97253
H 10.09681 -0.34178 6.55249
H 9.71184 0.18847 4.85397
H 9.74400 -5.35591 2.17018
H 11.01331 -4.27655 2.83351
H 11.14573 -4.83904 1.11936
H 7.78780 -3.55790 -2.53955
H 4.04389 -5.45516 -3.52259
H 3.60248 -3.63357 -3.62698
H 3.51926 -4.62906 -2.15243

