%nproc=24
%mem=175gb
#p cam-b3lyp/Def2SVP td=(nstates=5)

TDDFT excited states in gaussian

0 1
Mg 10.51750 0.94654 0.80669
C 10.54812 -2.51079 1.76846
C 9.33395 1.64974 3.92748
C 10.05223 3.93537 -0.15136
C 10.59632 -0.11917 -2.51050
N 10.04375 -0.34850 2.53605
C 10.15354 -1.64057 2.80599
C 9.89928 -2.01110 4.29179
C 8.98987 -0.75246 4.70127
C 9.50688 0.26361 3.68492
C 7.50806 -0.97211 4.44565
C 11.22426 -2.05962 5.13089
C 11.08970 -2.71294 6.50814
H 12.21057 -3.49728 7.01895
N 10.27142 2.60964 1.86127
C 9.80115 2.71156 3.12212
C 9.79371 4.14926 3.43375
C 10.14219 4.89922 2.19648
C 10.14858 3.82134 1.22787
C 9.55444 4.68079 4.81710
C 10.41100 6.34882 1.92700
O 10.46069 6.81393 0.73367
C 10.52156 7.22468 3.10264
N 10.13499 1.78669 -1.05615
C 10.02663 3.11864 -1.20474
C 10.02769 3.50658 -2.66416
C 10.40416 2.17319 -3.46286
C 10.47109 1.18081 -2.28129
C 8.71283 4.06879 -3.20400
C 11.61560 2.25155 -4.43184
C 12.89289 2.44489 -3.64663
N 10.74966 -0.94309 -0.21480
C 10.72708 -1.16759 -1.60877
C 10.80965 -2.62796 -1.81595
C 10.85166 -3.15737 -0.51732
C 10.77863 -2.10274 0.43238
C 10.78872 -3.29209 -3.07477
C 10.93046 -4.36925 0.26615
O 11.09949 -5.56048 0.00896
C 10.60996 -4.01299 1.78165
C 11.65732 -4.66356 2.64324
O 12.84588 -4.30440 2.57303
O 11.05314 -5.44464 3.55716
C 12.05026 -6.10310 4.44261
H 8.74861 1.95556 4.79508
H 10.00175 4.95599 -0.53770
H 10.72492 -0.52488 -3.51625
H 9.34903 -2.93212 4.44252
H 9.20549 -0.42222 5.71409
H 7.32274 -1.89657 3.91918
H 7.18349 -0.12726 3.85242
H 6.95066 -0.91279 5.38487
H 11.49466 -1.03948 5.43247
H 12.00797 -2.54005 4.57806
H 10.15163 -3.27219 6.60919
H 11.01384 -1.92412 7.26049
H 9.16281 3.90331 5.48460
H 8.74071 5.41033 4.74302
H 10.43390 5.17374 5.23688
H 9.60150 7.17219 3.67988
H 10.80320 8.20435 2.71175
H 11.32053 6.84397 3.74865
H 10.77996 4.25987 -2.86353
H 9.57894 1.83812 -4.10829
H 8.81935 5.07511 -3.65127
H 7.99201 4.08555 -2.39735
H 8.21477 3.44705 -3.94601
H 11.52016 3.12017 -5.08800
H 11.71797 1.37793 -5.06690
H 12.91485 3.52495 -3.47320
H 13.75322 2.12105 -4.22886
H 12.83117 1.95506 -2.66790
H 11.55072 -4.05907 -3.03485
H 10.96499 -2.59769 -3.89362
H 9.76519 -3.67636 -3.07556
H 9.60913 -4.38665 2.00142
H 11.86581 -7.18034 4.38587
H 11.93342 -5.62350 5.43260
H 13.09231 -6.05123 4.14954

