%nproc=24
%mem=175gb
#p cam-b3lyp/Def2SVP td=(nstates=5)

TDDFT excited states in gaussian

0 1
Mg 0.00000 0.00000 0.00000
C -0.21700 -2.21800 2.80100
C -1.25500 2.44200 2.02600
C -0.24500 1.85000 -2.56400
C 0.14600 -2.82400 -2.03700
N -0.61700 -0.00900 2.12600
C -0.59400 -0.90800 3.10500
C -0.93600 -0.30900 4.50200
C -1.77300 0.96400 4.03200
C -1.15500 1.16800 2.66000
C -3.26300 0.68500 3.86300
C 0.34500 0.11000 5.29900
C 0.12400 0.39700 6.78700
H 1.16800 0.03300 7.73300
N -0.18500 1.96100 -0.15200
C -0.70300 2.80000 0.77700
C -0.62000 4.15600 0.19300
C -0.18700 4.01500 -1.22500
C -0.21400 2.58300 -1.38000
C -0.88700 5.40600 0.97400
C 0.18100 5.01300 -2.27700
O 0.30300 4.69000 -3.50800
C 0.31000 6.41400 -1.83700
N -0.26500 -0.41300 -2.02900
C -0.27900 0.56900 -2.93700
C -0.19600 0.02400 -4.33200
C 0.12400 -1.53300 -4.18000
C 0.08600 -1.63200 -2.63500
C -1.45100 0.20500 -5.19700
C 1.37300 -2.07000 -4.92300
C 2.62600 -1.49000 -4.30600
N 0.15000 -2.14400 0.30300
C 0.17300 -3.13600 -0.68800
C 0.17300 -4.43800 0.00400
C 0.13300 -4.11100 1.35800
C 0.08300 -2.69500 1.50200
C 0.14900 -5.71500 -0.62300
C 0.09600 -4.62900 2.71600
O 0.20800 -5.74700 3.22100
C -0.25500 -3.42800 3.70100
C 0.71700 -3.48200 4.84800
O 1.93100 -3.25500 4.66900
O 0.03800 -3.55600 6.00300
C 0.94300 -3.58300 7.18300
H -1.85900 3.22000 2.49700
H -0.21800 2.45300 -3.47400
H 0.27600 -3.74700 -2.60500
H -1.55400 -0.94900 5.13200
H -1.58500 1.83100 4.66500
H -3.48400 -0.37700 3.96900
H -3.51100 1.02700 2.85800
H -3.85200 1.30100 4.54300
H 0.66900 1.09600 4.96600
H 1.13000 -0.63900 5.18900
H -0.84400 0.02600 7.12500
H 0.06200 1.47700 6.92100
H -1.34400 5.18600 1.93800
H -1.65100 5.96300 0.43200
H 0.00700 6.02000 1.08400
H -0.63500 6.74400 -1.40500
H 0.66500 6.97000 -2.70400
H 1.04800 6.46600 -1.03600
H 0.60800 0.50100 -4.89100
H -0.69200 -2.15600 -4.54700
H -1.26700 0.74000 -6.12900
H -2.20400 0.71400 -4.59600
H -1.96700 -0.72000 -5.45300
H 1.35600 -1.75900 -5.96700
H 1.45200 -3.15700 -4.90200
H 2.71400 -0.52200 -4.79800
H 3.48700 -2.12100 -4.52900
H 2.49500 -1.30300 -3.24000
H 0.86700 -6.33300 -0.08400
H 0.40400 -5.64200 -1.68000
H -0.89100 -5.99900 -0.46300
H -1.28300 -3.58100 4.02800
H 0.69800 -4.47800 7.75500
H 0.83300 -2.61900 7.68000
H 2.00000 -3.75400 6.97600
Mg 8.94204 0.80790 0.67247
C 11.61967 -1.38424 1.62318
C 10.89612 3.40261 1.71346
C 6.44362 2.72155 0.26834
C 6.82344 -1.95691 0.78665
N 10.97670 0.87369 1.53738
C 11.92209 -0.01738 1.79539
C 13.29342 0.59509 2.18771
C 12.77629 2.01604 2.72841
C 11.48500 2.12968 1.92073
C 12.41665 2.00349 4.20483
C 14.24807 0.76287 0.95381
C 15.70661 1.06418 1.30546
H 16.75665 0.50322 0.45976
N 8.85317 2.78157 0.48458
C 9.74344 3.68396 0.94763
C 9.21312 5.00297 0.56930
C 7.85544 4.81407 -0.01013
C 7.65184 3.40304 0.24991
C 10.01149 6.26786 0.69609
C 6.89358 5.75142 -0.67526
O 5.67267 5.42431 -0.88790
C 7.39806 7.09701 -0.98573
N 6.89002 0.48328 0.75129
C 6.02242 1.47532 0.48471
C 4.61702 0.94443 0.33175
C 4.75924 -0.64835 0.31167
C 6.27930 -0.76980 0.55680
C 3.62896 1.35316 1.42402
C 4.14467 -1.39453 -0.90414
C 4.91465 -1.05623 -2.16035
N 9.17896 -1.32328 0.93703
C 8.15672 -2.29668 0.97715
C 8.79856 -3.58930 1.29277
C 10.15740 -3.27171 1.43823
C 10.34606 -1.87610 1.24802
C 8.12692 -4.83359 1.45634
C 11.47359 -3.79802 1.71992
O 11.94353 -4.92418 1.87692
C 12.46084 -2.57916 1.97705
C 13.71153 -2.81751 1.17613
O 13.67503 -2.82056 -0.06696
O 14.77499 -2.78573 1.99979
C 16.04034 -3.00618 1.25005
H 11.33246 4.26462 2.21885
H 5.56181 3.31849 0.02432
H 6.24522 -2.88237 0.74335
H 13.81858 0.06668 2.97432
H 13.46423 2.81421 2.46188
H 12.45617 1.00767 4.62068
H 11.41142 2.39946 4.26611
H 13.05109 2.70560 4.75334
H 13.98790 1.68766 0.42294
H 14.20065 -0.09795 0.31557
H 15.92312 0.87439 2.36378
H 15.87822 2.13658 1.18490
H 10.91013 6.11682 1.30686
H 9.40468 6.97229 1.27526
H 10.24657 6.71636 -0.27151
H 7.73116 7.57817 -0.06922
H 6.59543 7.58984 -1.53779
H 8.27992 7.00025 -1.62883
H 4.18037 1.27009 -0.60440
H 4.26335 -1.11264 1.17674
H 2.73374 1.87115 1.03117
H 4.14834 1.97944 2.13716
H 3.27003 0.53836 2.05050
H 3.11678 -1.06351 -1.07153
H 4.12010 -2.47225 -0.78211
H 4.47165 -0.10590 -2.47293
H 4.77178 -1.82586 -2.91618
H 5.97126 -0.86939 -1.93601
H 8.71676 -5.57652 0.93611
H 7.11047 -4.79045 1.07066
H 8.14912 -4.92551 2.54552
H 12.66185 -2.54077 3.04836
H 16.54765 -3.85349 1.72163
H 16.56752 -2.03370 1.26125
H 15.96233 -3.35006 0.22530

