%nproc=24
%mem=175gb
#p cam-b3lyp/Def2SVP td=(nstates=5)

TDDFT excited states in gaussian

0 1
Mg 8.92623 0.80657 0.67209
C 9.14368 -1.94583 -1.62052
C 9.43880 2.87286 -1.99292
C 9.18931 3.21718 2.71836
C 9.57138 -1.46086 3.23886
N 9.23675 0.39733 -1.47927
C 9.23799 -0.68414 -2.24396
C 9.26562 -0.39381 -3.76859
C 9.92776 1.06851 -3.72294
C 9.48139 1.49544 -2.32610
C 11.44691 1.04244 -3.75176
C 7.82783 -0.35400 -4.39563
C 7.79229 -0.38314 -5.92522
H 6.70169 -1.09792 -6.58260
N 8.77635 2.76343 0.37744
C 8.99780 3.43233 -0.77356
C 8.77503 4.85284 -0.46261
C 8.56497 4.98447 1.00479
C 8.86255 3.63330 1.43593
C 8.69696 5.91488 -1.52062
C 8.17488 6.13892 1.87730
O 8.28324 6.08529 3.15332
C 7.75060 7.36683 1.18904
N 9.53077 0.91019 2.65858
C 9.50161 2.07464 3.33024
C 9.71437 1.85671 4.80930
C 9.65123 0.27316 5.02369
C 9.49504 -0.17516 3.55400
C 11.02651 2.39524 5.37910
C 8.63206 -0.25531 6.06996
C 7.22114 -0.00939 5.58600
N 9.11126 -1.33937 0.84175
C 9.40967 -2.08037 2.00620
C 9.54317 -3.49447 1.60009
C 9.33425 -3.47471 0.21284
C 9.10792 -2.13969 -0.21841
C 9.86913 -4.58004 2.46114
C 9.26423 -4.27828 -0.98635
O 9.28961 -5.48473 -1.22632
C 9.26311 -3.30814 -2.24540
C 8.16538 -3.75217 -3.17295
O 6.97386 -3.67319 -2.82558
O 8.68666 -3.99085 -4.39018
C 7.63467 -4.42351 -5.34828
H 9.81817 3.59389 -2.71754
H 9.18388 3.99744 3.48297
H 9.67476 -2.24208 3.99495
H 9.88764 -1.06570 -4.34776
H 9.49616 1.72125 -4.47728
H 11.83406 0.03699 -3.67873
H 11.76740 1.63377 -2.90402
H 11.81610 1.56369 -4.63964
H 7.38621 0.63470 -4.21623
H 7.21969 -1.14654 -4.00489
H 8.75798 -0.67667 -6.35444
H 7.63624 0.63565 -6.28817
H 9.05432 5.54459 -2.48943
H 9.41625 6.69383 -1.24547
H 7.70345 6.36200 -1.59612
H 8.55214 7.71277 0.54072
H 7.42667 8.04746 1.97878
H 6.90119 7.12805 0.53934
H 8.92415 2.32122 5.38626
H 10.61296 -0.12919 5.37445
H 10.88040 3.11010 6.21079
H 11.58411 2.85644 4.57479
H 11.72082 1.63653 5.73615
H 8.73720 0.29098 7.01053
H 8.75155 -1.30987 6.29494
H 7.03772 1.02909 5.87757
H 6.52444 -0.68605 6.07669
H 7.16588 -0.05938 4.49234
H 9.21099 -5.39660 2.19548
H 9.75917 -4.30416 3.50783
H 10.91524 -4.73958 2.18640
H 10.24635 -3.37643 -2.71247
H 7.95554 -5.38423 -5.76268
H 7.51366 -3.58387 -6.05829
H 6.66331 -4.68179 -4.94307

