%nproc=24
%mem=175gb
#p cam-b3lyp/Def2SVP td=(nstates=5)

TDDFT excited states in gaussian

0 1
Mg 0.00000 0.00000 0.00000
C -0.21700 -2.21800 2.80100
C -1.25500 2.44200 2.02600
C -0.24500 1.85000 -2.56400
C 0.14600 -2.82400 -2.03700
N -0.61700 -0.00900 2.12600
C -0.59400 -0.90800 3.10500
C -0.93600 -0.30900 4.50200
C -1.77300 0.96400 4.03200
C -1.15500 1.16800 2.66000
C -3.26300 0.68500 3.86300
C 0.34500 0.11000 5.29900
C 0.12400 0.39700 6.78700
H 1.16800 0.03300 7.73300
N -0.18500 1.96100 -0.15200
C -0.70300 2.80000 0.77700
C -0.62000 4.15600 0.19300
C -0.18700 4.01500 -1.22500
C -0.21400 2.58300 -1.38000
C -0.88700 5.40600 0.97400
C 0.18100 5.01300 -2.27700
O 0.30300 4.69000 -3.50800
C 0.31000 6.41400 -1.83700
N -0.26500 -0.41300 -2.02900
C -0.27900 0.56900 -2.93700
C -0.19600 0.02400 -4.33200
C 0.12400 -1.53300 -4.18000
C 0.08600 -1.63200 -2.63500
C -1.45100 0.20500 -5.19700
C 1.37300 -2.07000 -4.92300
C 2.62600 -1.49000 -4.30600
N 0.15000 -2.14400 0.30300
C 0.17300 -3.13600 -0.68800
C 0.17300 -4.43800 0.00400
C 0.13300 -4.11100 1.35800
C 0.08300 -2.69500 1.50200
C 0.14900 -5.71500 -0.62300
C 0.09600 -4.62900 2.71600
O 0.20800 -5.74700 3.22100
C -0.25500 -3.42800 3.70100
C 0.71700 -3.48200 4.84800
O 1.93100 -3.25500 4.66900
O 0.03800 -3.55600 6.00300
C 0.94300 -3.58300 7.18300
H -1.85900 3.22000 2.49700
H -0.21800 2.45300 -3.47400
H 0.27600 -3.74700 -2.60500
H -1.55400 -0.94900 5.13200
H -1.58500 1.83100 4.66500
H -3.48400 -0.37700 3.96900
H -3.51100 1.02700 2.85800
H -3.85200 1.30100 4.54300
H 0.66900 1.09600 4.96600
H 1.13000 -0.63900 5.18900
H -0.84400 0.02600 7.12500
H 0.06200 1.47700 6.92100
H -1.34400 5.18600 1.93800
H -1.65100 5.96300 0.43200
H 0.00700 6.02000 1.08400
H -0.63500 6.74400 -1.40500
H 0.66500 6.97000 -2.70400
H 1.04800 6.46600 -1.03600
H 0.60800 0.50100 -4.89100
H -0.69200 -2.15600 -4.54700
H -1.26700 0.74000 -6.12900
H -2.20400 0.71400 -4.59600
H -1.96700 -0.72000 -5.45300
H 1.35600 -1.75900 -5.96700
H 1.45200 -3.15700 -4.90200
H 2.71400 -0.52200 -4.79800
H 3.48700 -2.12100 -4.52900
H 2.49500 -1.30300 -3.24000
H 0.86700 -6.33300 -0.08400
H 0.40400 -5.64200 -1.68000
H -0.89100 -5.99900 -0.46300
H -1.28300 -3.58100 4.02800
H 0.69800 -4.47800 7.75500
H 0.83300 -2.61900 7.68000
H 2.00000 -3.75400 6.97600
Mg 10.50247 0.94853 0.79236
C 10.55668 -1.81657 -1.49463
C 10.86058 2.99801 -1.91060
C 10.91003 3.36722 2.80514
C 11.29223 -1.31080 3.32562
N 10.67438 0.52654 -1.37204
C 10.62020 -0.55866 -2.12950
C 10.55393 -0.27601 -3.65439
C 11.22756 1.18175 -3.65824
C 10.87277 1.61871 -2.23843
C 12.74168 1.14472 -3.78229
C 9.07987 -0.22904 -4.19008
C 8.94807 -0.26543 -5.71424
H 7.81348 -0.97565 -6.29799
N 10.34768 2.90494 0.49725
C 10.50090 3.56659 -0.66895
C 10.30779 4.99016 -0.35222
C 10.19127 5.13049 1.12475
C 10.50616 3.77936 1.54356
C 10.17060 6.04753 -1.40890
C 9.86465 6.29195 2.01386
O 10.05263 6.24382 3.28082
C 9.40632 7.51946 1.34705
N 11.23136 1.05760 2.73637
C 11.25239 2.22551 3.40230
C 11.55620 2.01333 4.86622
C 11.49590 0.43134 5.09262
C 11.24459 -0.02306 3.63805
C 12.90519 2.54528 5.34958
C 10.54092 -0.08471 6.20365
C 9.10408 0.16888 5.80796
N 10.68320 -1.19781 0.96153
C 11.04916 -1.93519 2.10888
C 11.14725 -3.35218 1.70275
C 10.85169 -3.33775 0.33129
C 10.60779 -2.00328 -0.09203
C 11.51929 -4.43581 2.54742
C 10.70098 -4.14668 -0.85683
O 10.70302 -5.35444 -1.09146
C 10.62732 -3.18274 -2.11849
C 9.47047 -3.62349 -2.97286
O 8.30371 -3.53432 -2.55177
O 9.91259 -3.87185 -4.21915
C 8.79954 -4.30169 -5.10694
H 11.19856 3.71276 -2.66146
H 10.95798 4.15125 3.56441
H 11.43761 -2.08903 4.07789
H 11.13373 -0.95515 -4.26788
H 10.75386 1.83384 -4.38746
H 13.12581 0.13691 -3.72834
H 13.11884 1.73791 -2.95953
H 13.05787 1.65896 -4.69438
H 8.65714 0.76365 -3.98859
H 8.49212 -1.01529 -3.75768
H 9.88285 -0.56794 -6.20170
H 8.77645 0.75265 -6.07211
H 10.46384 5.66995 -2.39625
H 10.91105 6.82267 -1.18364
H 9.17738 6.50134 -1.42423
H 10.16786 7.85650 0.64782
H 9.13730 8.20625 2.15193
H 8.51615 7.28356 0.75327
H 10.80698 2.48629 5.48918
H 12.47501 0.02387 5.38442
H 12.81652 3.26524 6.18497
H 13.41427 2.99855 4.50939
H 13.61540 1.78341 5.66637
H 10.70868 0.46542 7.13283
H 10.66714 -1.13898 6.42632
H 8.94642 1.21005 6.10492
H 8.43501 -0.50039 6.34505
H 8.97985 0.11391 4.72021
H 10.84021 -5.24896 2.32800
H 11.47720 -4.15402 3.59746
H 12.54495 -4.60415 2.20838
H 11.57878 -3.26032 -2.64603
H 9.08719 -5.26671 -5.53554
H 8.63986 -3.46471 -5.81243
H 7.85383 -4.55106 -4.64015

