%nproc=24
%mem=175gb
#p cam-b3lyp/Def2SVP td=(nstates=5)

TDDFT excited states in gaussian

0 1
Mg 0.00000 0.00000 0.00000
C -0.21700 -2.21800 2.80100
C -1.25500 2.44200 2.02600
C -0.24500 1.85000 -2.56400
C 0.14600 -2.82400 -2.03700
N -0.61700 -0.00900 2.12600
C -0.59400 -0.90800 3.10500
C -0.93600 -0.30900 4.50200
C -1.77300 0.96400 4.03200
C -1.15500 1.16800 2.66000
C -3.26300 0.68500 3.86300
C 0.34500 0.11000 5.29900
C 0.12400 0.39700 6.78700
H 1.16800 0.03300 7.73300
N -0.18500 1.96100 -0.15200
C -0.70300 2.80000 0.77700
C -0.62000 4.15600 0.19300
C -0.18700 4.01500 -1.22500
C -0.21400 2.58300 -1.38000
C -0.88700 5.40600 0.97400
C 0.18100 5.01300 -2.27700
O 0.30300 4.69000 -3.50800
C 0.31000 6.41400 -1.83700
N -0.26500 -0.41300 -2.02900
C -0.27900 0.56900 -2.93700
C -0.19600 0.02400 -4.33200
C 0.12400 -1.53300 -4.18000
C 0.08600 -1.63200 -2.63500
C -1.45100 0.20500 -5.19700
C 1.37300 -2.07000 -4.92300
C 2.62600 -1.49000 -4.30600
N 0.15000 -2.14400 0.30300
C 0.17300 -3.13600 -0.68800
C 0.17300 -4.43800 0.00400
C 0.13300 -4.11100 1.35800
C 0.08300 -2.69500 1.50200
C 0.14900 -5.71500 -0.62300
C 0.09600 -4.62900 2.71600
O 0.20800 -5.74700 3.22100
C -0.25500 -3.42800 3.70100
C 0.71700 -3.48200 4.84800
O 1.93100 -3.25500 4.66900
O 0.03800 -3.55600 6.00300
C 0.94300 -3.58300 7.18300
H -1.85900 3.22000 2.49700
H -0.21800 2.45300 -3.47400
H 0.27600 -3.74700 -2.60500
H -1.55400 -0.94900 5.13200
H -1.58500 1.83100 4.66500
H -3.48400 -0.37700 3.96900
H -3.51100 1.02700 2.85800
H -3.85200 1.30100 4.54300
H 0.66900 1.09600 4.96600
H 1.13000 -0.63900 5.18900
H -0.84400 0.02600 7.12500
H 0.06200 1.47700 6.92100
H -1.34400 5.18600 1.93800
H -1.65100 5.96300 0.43200
H 0.00700 6.02000 1.08400
H -0.63500 6.74400 -1.40500
H 0.66500 6.97000 -2.70400
H 1.04800 6.46600 -1.03600
H 0.60800 0.50100 -4.89100
H -0.69200 -2.15600 -4.54700
H -1.26700 0.74000 -6.12900
H -2.20400 0.71400 -4.59600
H -1.96700 -0.72000 -5.45300
H 1.35600 -1.75900 -5.96700
H 1.45200 -3.15700 -4.90200
H 2.71400 -0.52200 -4.79800
H 3.48700 -2.12100 -4.52900
H 2.49500 -1.30300 -3.24000
H 0.86700 -6.33300 -0.08400
H 0.40400 -5.64200 -1.68000
H -0.89100 -5.99900 -0.46300
H -1.28300 -3.58100 4.02800
H 0.69800 -4.47800 7.75500
H 0.83300 -2.61900 7.68000
H 2.00000 -3.75400 6.97600
Mg 8.92805 0.80652 0.67035
C 9.79130 -1.88426 -1.54179
C 10.02432 2.94781 -1.74786
C 8.60155 3.17359 2.75789
C 8.98312 -1.50448 3.27840
N 9.77567 0.45648 -1.34243
C 9.99951 -0.60613 -2.10078
C 10.39641 -0.27900 -3.56537
C 10.98204 1.19792 -3.33165
C 10.18987 1.58020 -2.08304
C 12.46077 1.21055 -2.98159
C 9.15903 -0.26026 -4.53002
C 9.50563 -0.25388 -6.02052
H 8.63468 -0.97988 -6.94076
N 8.79718 2.76548 0.38060
C 9.27746 3.46690 -0.66754
C 8.94169 4.87360 -0.39804
C 8.36967 4.96498 0.97278
C 8.59137 3.61181 1.44167
C 9.09702 5.95823 -1.42414
C 7.74037 6.08823 1.73992
O 7.52979 6.00699 3.00162
C 7.46363 7.32117 0.98842
N 9.01654 0.87795 2.74626
C 8.78629 2.02500 3.40897
C 8.63127 1.77732 4.89053
C 8.56460 0.18804 5.05577
C 8.79214 -0.22895 3.58617
C 9.74379 2.33479 5.77817
C 7.33379 -0.39050 5.80616
C 6.08066 -0.16850 4.99022
N 9.12972 -1.33754 0.84463
C 9.15157 -2.09834 2.03408
C 9.42438 -3.49860 1.65030
C 9.56627 -3.45107 0.25527
C 9.41408 -2.11224 -0.19625
C 9.55870 -4.59586 2.54701
C 9.82073 -4.22739 -0.93691
O 9.94130 -5.42677 -1.18324
C 10.10329 -3.22790 -2.14005
C 9.28441 -3.67705 -3.31912
O 8.04212 -3.63619 -3.27822
O 10.09879 -3.87359 -4.37199
C 9.33145 -4.30951 -5.56906
H 10.54996 3.69514 -2.34290
H 8.38276 3.93506 3.51006
H 8.91886 -2.30064 4.02316
H 11.16281 -0.92116 -3.98256
H 10.73198 1.85742 -4.15862
H 12.84775 0.21364 -2.83134
H 12.54255 1.78937 -2.07092
H 13.02314 1.76184 -3.74063
H 8.65709 0.71254 -4.44968
H 8.49704 -1.07683 -4.31646
H 10.55609 -0.51288 -6.20055
H 9.41404 0.76903 -6.39372
H 9.69493 5.62014 -2.27947
H 9.70155 6.74816 -0.96542
H 8.14043 6.38203 -1.73719
H 8.39034 7.70238 0.56610
H 6.93324 7.97451 1.68391
H 6.80993 7.07675 0.14370
H 7.70882 2.20807 5.26019
H 9.42066 -0.19836 5.62821
H 9.37410 3.02578 6.55916
H 10.46962 2.82880 5.14598
H 10.35013 1.58540 6.28411
H 7.18537 0.13572 6.75233
H 7.42536 -1.44679 6.03605
H 5.79932 0.85784 5.24433
H 5.30460 -0.87386 5.28045
H 6.30046 -0.19383 3.91658
H 9.01214 -5.42207 2.11211
H 9.18380 -4.34779 3.53781
H 10.64458 -4.72260 2.53887
H 11.17335 -3.26044 -2.34857
H 9.77405 -5.25178 -5.90657
H 9.36543 -3.45651 -6.27261
H 8.29810 -4.60157 -5.42298

