%nproc=24
%mem=175gb
#p cam-b3lyp/Def2SVP td=(nstates=5)

TDDFT excited states in gaussian

0 1
Mg 13.14046 1.18764 1.00731
C 11.73865 -1.18838 3.30264
C 10.91394 3.46179 2.23428
C 14.04107 3.16741 -1.30285
C 14.42385 -1.51098 -0.78604
N 11.57918 1.03696 2.56679
C 11.17911 0.10149 3.41483
C 10.17805 0.59638 4.49304
C 9.58406 1.86388 3.70597
C 10.77518 2.16921 2.80005
C 8.39151 1.52242 2.82815
C 10.89452 1.02861 5.82039
C 9.96328 1.22867 7.01810
H 10.44855 0.86252 8.34585
N 12.92431 3.15365 0.84400
C 11.97944 3.91973 1.42847
C 12.24052 5.29518 0.97666
C 13.31517 5.25498 -0.05204
C 13.45715 3.82370 -0.22913
C 11.55646 6.49110 1.57268
C 14.07862 6.32746 -0.76838
O 14.80038 6.06861 -1.79546
C 13.88247 7.70341 -0.28903
N 13.91251 0.87364 -0.89734
C 14.26953 1.90864 -1.67787
C 15.05036 1.43962 -2.88232
C 15.35297 -0.10896 -2.62177
C 14.58430 -0.29735 -1.29547
C 14.35175 1.60128 -4.23221
C 16.83923 -0.55590 -2.68461
C 17.60929 0.04929 -1.53302
N 13.26506 -0.95054 1.29140
C 13.82123 -1.89792 0.40414
C 13.56901 -3.23462 0.98039
C 12.85779 -2.97125 2.16077
C 12.66177 -1.57059 2.29939
C 13.93914 -4.47715 0.39282
C 12.21903 -3.56032 3.31562
O 12.13931 -4.69742 3.77863
C 11.35599 -2.44046 4.04189
C 11.65671 -2.50435 5.51431
O 12.79168 -2.22681 5.94022
O 10.50626 -2.66940 6.19224
C 10.75150 -2.72753 7.65795
H 10.11072 4.18343 2.38584
H 14.46699 3.81256 -2.07476
H 14.87752 -2.39718 -1.23493
H 9.38302 -0.10082 4.72889
H 9.39531 2.69484 4.38069
H 8.21317 0.45816 2.78696
H 8.63146 1.90417 1.84441
H 7.50864 2.07662 3.15940
H 11.27489 2.05174 5.70517
H 11.67051 0.33428 6.07801
H 8.96788 0.80315 6.84189
H 9.77952 2.29892 7.13983
H 10.69892 6.19754 2.19062
H 11.11376 7.05276 0.74297
H 12.24477 7.14382 2.11384
H 12.82847 7.96236 -0.35602
H 14.57830 8.31579 -0.86582
H 14.15002 7.74548 0.77270
H 15.98984 1.97213 -2.96549
H 14.85883 -0.75142 -3.36535
H 14.93366 2.20320 -4.95551
H 13.37999 2.04563 -4.06259
H 14.09544 0.66979 -4.73404
H 17.30766 -0.18567 -3.59984
H 16.96731 -1.63311 -2.67030
H 17.85644 1.04989 -1.90018
H 18.50793 -0.52877 -1.32727
H 16.96876 0.17044 -0.65172
H 14.34328 -5.08944 1.18798
H 14.66114 -4.33828 -0.40918
H 12.96845 -4.81239 0.01780
H 10.30629 -2.64646 3.82912
H 10.31490 -3.66423 8.01803
H 10.33604 -1.78779 8.06787
H 11.77769 -2.83083 7.99070

