%nproc=24
%mem=175gb
#p cam-b3lyp/Def2SVP td=(nstates=5)

TDDFT excited states in gaussian

0 1
Mg 0.00000 0.00000 0.00000
C -0.21700 -2.21800 2.80100
C -1.25500 2.44200 2.02600
C -0.24500 1.85000 -2.56400
C 0.14600 -2.82400 -2.03700
N -0.61700 -0.00900 2.12600
C -0.59400 -0.90800 3.10500
C -0.93600 -0.30900 4.50200
C -1.77300 0.96400 4.03200
C -1.15500 1.16800 2.66000
C -3.26300 0.68500 3.86300
C 0.34500 0.11000 5.29900
C 0.12400 0.39700 6.78700
H 1.16800 0.03300 7.73300
N -0.18500 1.96100 -0.15200
C -0.70300 2.80000 0.77700
C -0.62000 4.15600 0.19300
C -0.18700 4.01500 -1.22500
C -0.21400 2.58300 -1.38000
C -0.88700 5.40600 0.97400
C 0.18100 5.01300 -2.27700
O 0.30300 4.69000 -3.50800
C 0.31000 6.41400 -1.83700
N -0.26500 -0.41300 -2.02900
C -0.27900 0.56900 -2.93700
C -0.19600 0.02400 -4.33200
C 0.12400 -1.53300 -4.18000
C 0.08600 -1.63200 -2.63500
C -1.45100 0.20500 -5.19700
C 1.37300 -2.07000 -4.92300
C 2.62600 -1.49000 -4.30600
N 0.15000 -2.14400 0.30300
C 0.17300 -3.13600 -0.68800
C 0.17300 -4.43800 0.00400
C 0.13300 -4.11100 1.35800
C 0.08300 -2.69500 1.50200
C 0.14900 -5.71500 -0.62300
C 0.09600 -4.62900 2.71600
O 0.20800 -5.74700 3.22100
C -0.25500 -3.42800 3.70100
C 0.71700 -3.48200 4.84800
O 1.93100 -3.25500 4.66900
O 0.03800 -3.55600 6.00300
C 0.94300 -3.58300 7.18300
H -1.85900 3.22000 2.49700
H -0.21800 2.45300 -3.47400
H 0.27600 -3.74700 -2.60500
H -1.55400 -0.94900 5.13200
H -1.58500 1.83100 4.66500
H -3.48400 -0.37700 3.96900
H -3.51100 1.02700 2.85800
H -3.85200 1.30100 4.54300
H 0.66900 1.09600 4.96600
H 1.13000 -0.63900 5.18900
H -0.84400 0.02600 7.12500
H 0.06200 1.47700 6.92100
H -1.34400 5.18600 1.93800
H -1.65100 5.96300 0.43200
H 0.00700 6.02000 1.08400
H -0.63500 6.74400 -1.40500
H 0.66500 6.97000 -2.70400
H 1.04800 6.46600 -1.03600
H 0.60800 0.50100 -4.89100
H -0.69200 -2.15600 -4.54700
H -1.26700 0.74000 -6.12900
H -2.20400 0.71400 -4.59600
H -1.96700 -0.72000 -5.45300
H 1.35600 -1.75900 -5.96700
H 1.45200 -3.15700 -4.90200
H 2.71400 -0.52200 -4.79800
H 3.48700 -2.12100 -4.52900
H 2.49500 -1.30300 -3.24000
H 0.86700 -6.33300 -0.08400
H 0.40400 -5.64200 -1.68000
H -0.89100 -5.99900 -0.46300
H -1.28300 -3.58100 4.02800
H 0.69800 -4.47800 7.75500
H 0.83300 -2.61900 7.68000
H 2.00000 -3.75400 6.97600
Mg 10.51720 0.95415 0.80158
C 10.05117 0.82452 4.35757
C 9.33755 4.15266 0.91376
C 10.48965 0.94976 -2.37122
C 10.56042 -2.53060 0.81986
N 9.81732 2.21513 2.47859
C 9.74348 2.08044 3.79417
C 9.39326 3.38689 4.55582
C 8.64845 4.16669 3.36584
C 9.33036 3.50045 2.17260
C 7.15973 3.87085 3.29160
C 10.67153 4.15921 5.03703
C 10.40537 5.27549 6.04937
H 11.39328 5.51427 7.09793
N 10.46264 2.46478 -0.48434
C 9.96938 3.70183 -0.26602
C 10.14514 4.43388 -1.52990
C 10.63157 3.47819 -2.56178
C 10.52464 2.22886 -1.83527
C 9.93441 5.91544 -1.64821
C 11.10154 3.65733 -3.97360
O 11.25232 2.66022 -4.76472
C 11.29037 5.04174 -4.43102
N 10.31226 -0.56345 -0.60456
C 10.38892 -0.30106 -1.92107
C 10.48985 -1.57465 -2.72615
C 10.70951 -2.74291 -1.65633
C 10.60372 -1.91765 -0.35512
C 9.28089 -1.90644 -3.60063
C 11.95153 -3.65437 -1.85462
C 13.21684 -2.85977 -1.62443
N 10.52643 -0.59334 2.30931
C 10.51947 -1.98963 2.09855
C 10.41164 -2.62970 3.42562
C 10.33959 -1.55256 4.32175
C 10.37803 -0.32764 3.60231
C 10.34276 -4.03019 3.67059
C 10.22905 -1.17325 5.71193
O 10.24468 -1.78039 6.78192
C 9.90999 0.38202 5.78757
C 10.83161 0.99630 6.80531
O 12.05933 1.02662 6.60936
O 10.09833 1.63685 7.73395
C 10.96836 2.27197 8.75938
H 8.77059 5.07770 0.80546
H 10.58953 0.89080 -3.45751
H 10.66612 -3.61315 0.91779
H 8.71952 3.25719 5.39429
H 8.87329 5.22984 3.38877
H 6.86909 3.09117 3.97992
H 6.97128 3.56417 2.27107
H 6.58496 4.78930 3.44131
H 11.06664 4.75268 4.20250
H 11.40116 3.47944 5.43219
H 9.39782 5.21162 6.47798
H 10.41171 6.23192 5.52096
H 9.42018 6.32017 -0.76777
H 9.22903 6.07337 -2.47123
H 10.85797 6.45621 -1.86562
H 10.35323 5.58486 -4.33481
H 11.71382 4.96287 -5.43419
H 12.00933 5.53459 -3.76708
H 11.34269 -1.54400 -3.39310
H 9.86828 -3.45151 -1.64831
H 9.53634 -2.02930 -4.67008
H 8.54289 -1.12564 -3.47322
H 8.72829 -2.79696 -3.30600
H 11.99526 -4.01604 -2.88488
H 11.95620 -4.52492 -1.20723
H 13.37816 -2.36792 -2.58836
H 14.04439 -3.52093 -1.37529
H 13.05784 -2.07456 -0.87623
H 10.99299 -4.23151 4.51153
H 10.63749 -4.60223 2.79328
H 9.27744 -4.13736 3.89165
H 8.86136 0.48805 6.06811
H 10.64268 1.89375 9.73332
H 10.88476 3.36174 8.58861
H 12.01694 1.99832 8.76610

