%nproc=24
%mem=175gb
#p cam-b3lyp/Def2SVP td=(nstates=5)

TDDFT excited states in gaussian

0 1
Mg 13.14153 1.19078 1.00441
C 14.25947 -0.63026 3.88765
C 10.84934 2.69877 3.03084
C 11.83910 2.47275 -1.58936
C 14.69545 -1.23441 -0.95761
N 12.70858 0.97870 3.16308
C 13.23918 0.30170 4.17029
C 12.69818 0.70088 5.56941
C 11.27922 1.30100 5.11631
C 11.63518 1.72113 3.69172
C 10.17869 0.25549 5.04506
C 13.58698 1.79074 6.26529
C 13.29748 2.00285 7.75289
H 14.41319 2.31661 8.64127
N 11.92261 2.74528 0.81378
C 11.07696 3.23518 1.74445
C 10.39020 4.36921 1.10689
C 10.77952 4.40621 -0.32900
C 11.52896 3.17006 -0.43085
C 9.52997 5.33339 1.87094
C 10.50975 5.38495 -1.43149
O 10.74403 5.09835 -2.65860
C 9.87638 6.65321 -1.04180
N 13.06661 0.58398 -0.98268
C 12.48250 1.35253 -1.91866
C 12.79095 0.84874 -3.30843
C 13.90696 -0.28080 -3.11810
C 13.98959 -0.29761 -1.57594
C 11.60793 0.26943 -4.08382
C 15.22243 -0.11382 -3.92702
C 15.98970 1.08704 -3.42241
N 14.42956 -0.50697 1.36031
C 14.94451 -1.40344 0.39841
C 15.67162 -2.45928 1.13254
C 15.50846 -2.11370 2.48252
C 14.71730 -0.93754 2.58354
C 16.32270 -3.58170 0.54741
C 15.81667 -2.48238 3.84552
O 16.52503 -3.33768 4.37508
C 14.91560 -1.60926 4.82129
C 15.80257 -1.05830 5.90399
O 16.69892 -0.24041 5.63155
O 15.30946 -1.41790 7.10311
C 16.14895 -0.88559 8.20933
H 9.94771 3.06089 3.52563
H 11.50613 2.93517 -2.52144
H 15.28976 -1.97180 -1.50141
H 12.55071 -0.12696 6.25256
H 11.00834 2.16807 5.71312
H 10.56103 -0.74292 5.19717
H 9.74758 0.34906 4.05691
H 9.37789 0.50262 5.74789
H 13.31048 2.77952 5.87722
H 14.62914 1.57784 6.12674
H 12.68702 1.19447 8.17337
H 12.67415 2.89373 7.86153
H 9.29607 4.95604 2.87409
H 8.56083 5.37008 1.36174
H 9.95126 6.34048 1.90193
H 8.92498 6.44774 -0.55696
H 9.84622 7.25636 -1.95129
H 10.50987 7.14590 -0.29576
H 13.19492 1.64132 -3.92628
H 13.54016 -1.27163 -3.42397
H 11.43476 0.77091 -5.05470
H 10.72638 0.33396 -3.45992
H 11.66830 -0.79808 -4.28872
H 14.99821 0.08065 -4.97871
H 15.86546 -0.98686 -3.89093
H 15.51671 1.92125 -3.94916
H 17.04362 1.00419 -3.68013
H 15.82338 1.23790 -2.34946
H 17.27349 -3.68833 1.05251
H 16.45368 -3.45100 -0.52476
H 15.60062 -4.36903 0.77976
H 14.13851 -2.26179 5.22120
H 16.44433 -1.74014 8.82591
H 15.53987 -0.10037 8.69534
H 17.11480 -0.46841 7.94943

