%nproc=24
%mem=175gb
#p cam-b3lyp/Def2SVP td=(nstates=5)

TDDFT excited states in gaussian

0 1
Mg 0.00000 0.00000 0.00000
C -0.21700 -2.21800 2.80100
C -1.25500 2.44200 2.02600
C -0.24500 1.85000 -2.56400
C 0.14600 -2.82400 -2.03700
N -0.61700 -0.00900 2.12600
C -0.59400 -0.90800 3.10500
C -0.93600 -0.30900 4.50200
C -1.77300 0.96400 4.03200
C -1.15500 1.16800 2.66000
C -3.26300 0.68500 3.86300
C 0.34500 0.11000 5.29900
C 0.12400 0.39700 6.78700
H 1.16800 0.03300 7.73300
N -0.18500 1.96100 -0.15200
C -0.70300 2.80000 0.77700
C -0.62000 4.15600 0.19300
C -0.18700 4.01500 -1.22500
C -0.21400 2.58300 -1.38000
C -0.88700 5.40600 0.97400
C 0.18100 5.01300 -2.27700
O 0.30300 4.69000 -3.50800
C 0.31000 6.41400 -1.83700
N -0.26500 -0.41300 -2.02900
C -0.27900 0.56900 -2.93700
C -0.19600 0.02400 -4.33200
C 0.12400 -1.53300 -4.18000
C 0.08600 -1.63200 -2.63500
C -1.45100 0.20500 -5.19700
C 1.37300 -2.07000 -4.92300
C 2.62600 -1.49000 -4.30600
N 0.15000 -2.14400 0.30300
C 0.17300 -3.13600 -0.68800
C 0.17300 -4.43800 0.00400
C 0.13300 -4.11100 1.35800
C 0.08300 -2.69500 1.50200
C 0.14900 -5.71500 -0.62300
C 0.09600 -4.62900 2.71600
O 0.20800 -5.74700 3.22100
C -0.25500 -3.42800 3.70100
C 0.71700 -3.48200 4.84800
O 1.93100 -3.25500 4.66900
O 0.03800 -3.55600 6.00300
C 0.94300 -3.58300 7.18300
H -1.85900 3.22000 2.49700
H -0.21800 2.45300 -3.47400
H 0.27600 -3.74700 -2.60500
H -1.55400 -0.94900 5.13200
H -1.58500 1.83100 4.66500
H -3.48400 -0.37700 3.96900
H -3.51100 1.02700 2.85800
H -3.85200 1.30100 4.54300
H 0.66900 1.09600 4.96600
H 1.13000 -0.63900 5.18900
H -0.84400 0.02600 7.12500
H 0.06200 1.47700 6.92100
H -1.34400 5.18600 1.93800
H -1.65100 5.96300 0.43200
H 0.00700 6.02000 1.08400
H -0.63500 6.74400 -1.40500
H 0.66500 6.97000 -2.70400
H 1.04800 6.46600 -1.03600
H 0.60800 0.50100 -4.89100
H -0.69200 -2.15600 -4.54700
H -1.26700 0.74000 -6.12900
H -2.20400 0.71400 -4.59600
H -1.96700 -0.72000 -5.45300
H 1.35600 -1.75900 -5.96700
H 1.45200 -3.15700 -4.90200
H 2.71400 -0.52200 -4.79800
H 3.48700 -2.12100 -4.52900
H 2.49500 -1.30300 -3.24000
H 0.86700 -6.33300 -0.08400
H 0.40400 -5.64200 -1.68000
H -0.89100 -5.99900 -0.46300
H -1.28300 -3.58100 4.02800
H 0.69800 -4.47800 7.75500
H 0.83300 -2.61900 7.68000
H 2.00000 -3.75400 6.97600
Mg 15.76578 1.42813 1.20365
C 17.64981 0.38877 4.07579
C 13.11813 1.90782 3.29995
C 13.95489 1.91491 -1.35587
C 18.14015 -0.19173 -0.76716
N 15.53713 1.15023 3.38603
C 16.33930 0.80982 4.38352
C 15.72664 1.00395 5.79651
C 14.17306 0.92205 5.39831
C 14.26778 1.38855 3.94708
C 13.62272 -0.49440 5.40974
C 16.08756 2.39875 6.41802
C 15.78502 2.53482 7.91190
H 16.68882 3.33344 8.73519
N 13.99414 2.30586 1.03200
C 13.05183 2.43109 1.98994
C 11.92571 3.13491 1.35698
C 12.21380 3.26881 -0.09690
C 13.41551 2.46580 -0.20255
C 10.76213 3.67504 2.13657
C 11.51528 3.98860 -1.21053
O 11.80844 3.77353 -2.43961
C 10.41436 4.88310 -0.82411
N 15.89093 0.75760 -0.76029
C 15.00369 1.16123 -1.68647
C 15.45119 0.77404 -3.07580
C 16.94836 0.23660 -2.91075
C 17.08164 0.32658 -1.37468
C 14.60373 -0.28812 -3.77581
C 18.03873 0.91051 -3.78803
C 18.23605 2.34524 -3.35444
N 17.66656 0.45784 1.54073
C 18.48262 -0.17698 0.57890
C 19.61503 -0.78859 1.30417
C 19.36505 -0.48438 2.65082
C 18.15124 0.24663 2.75931
C 20.66317 -1.55261 0.71782
C 19.84647 -0.62459 4.00628
O 20.86947 -1.07220 4.52285
C 18.69193 -0.17453 5.00170
C 19.29424 0.74998 6.02397
O 19.74581 1.85823 5.68562
O 19.04222 0.26959 7.25526
C 19.61037 1.15812 8.30385
H 12.16527 1.87395 3.82890
H 13.42545 2.14888 -2.28239
H 18.97394 -0.63003 -1.31976
H 15.96971 0.22399 6.50809
H 13.57792 1.61757 5.98433
H 14.39965 -1.22722 5.56946
H 13.16024 -0.63812 4.44201
H 12.81702 -0.57985 6.14450
H 15.40251 3.15718 6.01773
H 17.11557 2.64344 6.23377
H 15.59263 1.56353 8.38364
H 14.84493 3.07973 8.02735
H 10.74538 3.28001 3.15984
H 9.85375 3.27274 1.67521
H 10.71376 4.76593 2.11963
H 9.65857 4.31460 -0.28740
H 10.09918 5.37412 -1.74685
H 10.80126 5.63180 -0.12386
H 15.45715 1.63422 -3.73394
H 17.02984 -0.82889 -3.17138
H 14.20071 0.04739 -4.75003
H 13.80040 -0.57654 -3.11097
H 15.10732 -1.23658 -3.95474
H 17.71799 0.94313 -4.83216
H 18.99382 0.39666 -3.76043
H 17.43483 2.87407 -3.87930
H 19.21517 2.70709 -3.66174
H 18.05713 2.45953 -2.27900
H 21.58470 -1.22151 1.17789
H 20.68994 -1.42741 -0.36263
H 20.35467 -2.56089 1.00670
H 18.28174 -1.07678 5.45698
H 20.26279 0.53942 8.92775
H 18.74088 1.63073 8.79820
H 20.29629 1.93433 7.98533

