%nproc=24
%mem=175gb
#p cam-b3lyp/Def2SVP td=(nstates=5)

TDDFT excited states in gaussian

0 1
Mg 13.14107 1.18767 1.00715
C 11.87016 -1.16700 3.39867
C 11.01159 3.48362 2.35938
C 13.90816 3.14961 -1.36557
C 14.29082 -1.52879 -0.84882
N 11.67990 1.05578 2.66240
C 11.32756 0.12735 3.53889
C 10.39964 0.63465 4.67518
C 9.76599 1.90248 3.92021
C 10.89987 2.19486 2.93965
C 8.51834 1.56521 3.12087
C 11.20104 1.06828 5.95258
C 10.34830 1.28085 7.20534
H 10.91356 0.91777 8.50192
N 12.92847 3.15434 0.84723
C 12.02743 3.93000 1.48579
C 12.26895 5.30132 1.01112
C 13.27652 5.24842 -0.08282
C 13.39735 3.81531 -0.26082
C 11.63185 6.50500 1.64254
C 14.00072 6.31190 -0.85142
O 14.65472 6.04288 -1.92041
C 13.84445 7.69155 -0.36806
N 13.78974 0.85883 -0.94053
C 14.10402 1.88742 -1.74747
C 14.80440 1.40694 -2.99607
C 15.11225 -0.14246 -2.74675
C 14.42719 -0.31885 -1.37381
C 14.02345 1.56695 -4.30025
C 16.58855 -0.60028 -2.90044
C 17.43356 0.00505 -1.80275
N 13.26873 -0.94993 1.29427
C 13.76158 -1.90559 0.37891
C 13.53699 -3.23760 0.97701
C 12.90317 -2.96339 2.19830
C 12.72578 -1.56070 2.34147
C 13.86100 -4.48561 0.37400
C 12.33426 -3.54221 3.39413
O 12.27606 -4.67643 3.86730
C 11.52621 -2.41268 4.16718
C 11.91843 -2.47149 5.61812
O 13.07980 -2.19995 5.97041
O 10.81177 -2.62500 6.36785
C 11.14825 -2.67769 7.81555
H 10.22441 4.21170 2.55722
H 14.28910 3.78791 -2.16615
H 14.70934 -2.42039 -1.32058
H 9.61628 -0.05570 4.96423
H 9.62568 2.73806 4.60101
H 8.33053 0.50207 3.09666
H 8.69858 1.94042 2.12198
H 7.66182 2.12731 3.50396
H 11.58037 2.08809 5.80823
H 11.98694 0.36971 6.16466
H 9.34092 0.86156 7.09427
H 10.17984 2.35296 7.33264
H 10.81286 6.22059 2.31468
H 11.14171 7.06572 0.83928
H 12.35724 7.15544 2.13589
H 12.79011 7.95767 -0.37010
H 14.50681 8.29612 -0.99068
H 14.17848 7.73692 0.67453
H 15.74040 1.93233 -3.14092
H 14.56800 -0.78502 -3.45438
H 14.56283 2.16114 -5.06188
H 13.06732 2.01904 -4.07230
H 13.72977 0.63486 -4.78000
H 17.00103 -0.23789 -3.84526
H 16.70994 -1.67829 -2.88845
H 17.66394 1.00205 -2.19005
H 18.33940 -0.57838 -1.65077
H 16.85052 0.13509 -0.88361
H 14.31014 -5.09686 1.14546
H 14.53209 -4.35583 -0.47250
H 12.86640 -4.81576 0.06248
H 10.46384 -2.61224 4.02187
H 10.72878 -3.60947 8.20735
H 10.76577 -1.73301 8.24573
H 12.19259 -2.78666 8.08373

