%nproc=24
%mem=175gb
#p cam-b3lyp/Def2SVP td=(nstates=5)

TDDFT excited states in gaussian

0 1
Mg 8.94231 0.79825 0.67552
C 8.94381 1.45317 -2.85296
C 8.41245 -2.48428 -0.08533
C 8.48705 0.25758 3.76871
C 8.33031 4.19409 1.16482
N 8.72505 -0.25639 -1.25653
C 8.80516 0.08638 -2.53341
C 8.81325 -1.11080 -3.52146
C 8.07523 -2.19366 -2.59323
C 8.45224 -1.63740 -1.22169
C 6.56125 -2.16386 -2.72102
C 10.26711 -1.56885 -3.89362
C 10.35494 -2.52474 -5.08538
H 11.50229 -2.41557 -5.98212
N 9.00051 -0.89740 1.70506
C 8.78315 -2.14325 1.23400
C 8.92170 -3.04081 2.39130
C 9.07578 -2.20802 3.61500
C 8.83429 -0.88809 3.06770
C 8.97987 -4.53505 2.25981
C 9.37643 -2.54519 5.04403
O 9.22862 -1.68639 5.98394
C 9.75928 -3.93706 5.32264
N 8.26752 1.99945 2.23247
C 8.21408 1.53291 3.49239
C 7.96382 2.64976 4.47748
C 8.10160 4.00314 3.63667
C 8.32954 3.40557 2.23085
C 6.60737 2.62423 5.18160
C 9.11139 5.05928 4.16352
C 10.52301 4.53471 4.03109
N 8.86296 2.56003 -0.57263
C 8.56472 3.87956 -0.16766
C 8.51810 4.70971 -1.38877
C 8.77172 3.80398 -2.42984
C 8.94292 2.49770 -1.89709
C 8.22027 6.10074 -1.43814
C 8.92302 3.65405 -3.85929
O 8.96806 4.42873 -4.81405
C 8.91584 2.10340 -4.20833
C 10.06529 1.83160 -5.13967
O 11.23892 1.97080 -4.75260
O 9.59779 1.24678 -6.25762
C 10.70202 0.94755 -7.20787
H 8.02059 -3.49475 -0.20480
H 8.42669 0.14628 4.85381
H 8.24238 5.27991 1.24182
H 8.24641 -0.95285 -4.43114
H 8.49733 -3.18566 -2.73153
H 6.22440 -1.33695 -3.32839
H 6.18261 -2.07073 -1.71157
H 6.19533 -3.12527 -3.09267
H 10.65080 -2.22255 -3.09977
H 10.90210 -0.72104 -4.06284
H 9.42053 -2.55549 -5.65886
H 10.47008 -3.54292 -4.70582
H 8.67454 -4.86293 1.25847
H 8.21251 -4.94474 2.92551
H 9.95089 -4.94550 2.54499
H 8.96292 -4.60255 4.99800
H 10.02114 -3.96161 6.38222
H 10.64102 -4.18449 4.72104
H 8.70935 2.64672 5.26315
H 7.15084 4.55451 3.59339
H 6.68859 2.60347 6.28480
H 6.05371 1.76590 4.82486
H 5.94174 3.44866 4.93171
H 8.94694 5.24238 5.22822
H 9.03918 6.01610 3.65728
H 10.64269 3.91922 4.92771
H 11.23708 5.35566 4.01769
H 10.61711 3.87310 3.16213
H 8.92823 6.54656 -2.12409
H 8.28097 6.55558 -0.45162
H 7.19353 6.06721 -1.81222
H 7.95351 1.87562 -4.66836
H 10.44521 1.42730 -8.15739
H 10.80299 -0.15406 -7.21121
H 11.67143 1.38711 -7.00421

