%nproc=24
%mem=175gb
#p cam-b3lyp/Def2SVP td=(nstates=5)

TDDFT excited states in gaussian

0 1
Mg 0.00000 0.00000 0.00000
C -0.21700 -2.21800 2.80100
C -1.25500 2.44200 2.02600
C -0.24500 1.85000 -2.56400
C 0.14600 -2.82400 -2.03700
N -0.61700 -0.00900 2.12600
C -0.59400 -0.90800 3.10500
C -0.93600 -0.30900 4.50200
C -1.77300 0.96400 4.03200
C -1.15500 1.16800 2.66000
C -3.26300 0.68500 3.86300
C 0.34500 0.11000 5.29900
C 0.12400 0.39700 6.78700
H 1.16800 0.03300 7.73300
N -0.18500 1.96100 -0.15200
C -0.70300 2.80000 0.77700
C -0.62000 4.15600 0.19300
C -0.18700 4.01500 -1.22500
C -0.21400 2.58300 -1.38000
C -0.88700 5.40600 0.97400
C 0.18100 5.01300 -2.27700
O 0.30300 4.69000 -3.50800
C 0.31000 6.41400 -1.83700
N -0.26500 -0.41300 -2.02900
C -0.27900 0.56900 -2.93700
C -0.19600 0.02400 -4.33200
C 0.12400 -1.53300 -4.18000
C 0.08600 -1.63200 -2.63500
C -1.45100 0.20500 -5.19700
C 1.37300 -2.07000 -4.92300
C 2.62600 -1.49000 -4.30600
N 0.15000 -2.14400 0.30300
C 0.17300 -3.13600 -0.68800
C 0.17300 -4.43800 0.00400
C 0.13300 -4.11100 1.35800
C 0.08300 -2.69500 1.50200
C 0.14900 -5.71500 -0.62300
C 0.09600 -4.62900 2.71600
O 0.20800 -5.74700 3.22100
C -0.25500 -3.42800 3.70100
C 0.71700 -3.48200 4.84800
O 1.93100 -3.25500 4.66900
O 0.03800 -3.55600 6.00300
C 0.94300 -3.58300 7.18300
H -1.85900 3.22000 2.49700
H -0.21800 2.45300 -3.47400
H 0.27600 -3.74700 -2.60500
H -1.55400 -0.94900 5.13200
H -1.58500 1.83100 4.66500
H -3.48400 -0.37700 3.96900
H -3.51100 1.02700 2.85800
H -3.85200 1.30100 4.54300
H 0.66900 1.09600 4.96600
H 1.13000 -0.63900 5.18900
H -0.84400 0.02600 7.12500
H 0.06200 1.47700 6.92100
H -1.34400 5.18600 1.93800
H -1.65100 5.96300 0.43200
H 0.00700 6.02000 1.08400
H -0.63500 6.74400 -1.40500
H 0.66500 6.97000 -2.70400
H 1.04800 6.46600 -1.03600
H 0.60800 0.50100 -4.89100
H -0.69200 -2.15600 -4.54700
H -1.26700 0.74000 -6.12900
H -2.20400 0.71400 -4.59600
H -1.96700 -0.72000 -5.45300
H 1.35600 -1.75900 -5.96700
H 1.45200 -3.15700 -4.90200
H 2.71400 -0.52200 -4.79800
H 3.48700 -2.12100 -4.52900
H 2.49500 -1.30300 -3.24000
H 0.86700 -6.33300 -0.08400
H 0.40400 -5.64200 -1.68000
H -0.89100 -5.99900 -0.46300
H -1.28300 -3.58100 4.02800
H 0.69800 -4.47800 7.75500
H 0.83300 -2.61900 7.68000
H 2.00000 -3.75400 6.97600
Mg 15.77357 1.41447 1.20357
C 15.97851 -1.75035 -0.47601
C 14.83229 -0.29868 3.99886
C 15.14884 4.20336 2.58170
C 15.60810 2.91408 -1.93801
N 15.47977 -0.74392 1.58734
C 15.64695 -1.85797 0.89072
C 15.52628 -3.16194 1.72417
C 14.61940 -2.59777 2.92340
C 15.02274 -1.12591 2.86329
C 13.12818 -2.69601 2.64781
C 16.91673 -3.66919 2.24511
C 16.91415 -5.09509 2.80059
H 18.09446 -5.92775 2.58612
N 15.56953 1.88215 3.12143
C 15.20213 1.05836 4.12526
C 15.18082 1.88849 5.33959
C 15.40538 3.30526 4.94327
C 15.36161 3.18529 3.49974
C 15.04180 1.31054 6.71802
C 15.61107 4.56235 5.73296
O 15.54943 5.71941 5.18502
C 15.79396 4.40312 7.18302
N 15.21588 3.26828 0.44547
C 15.05903 4.32846 1.25746
C 14.92915 5.60764 0.46548
C 15.27508 5.21441 -1.04557
C 15.46645 3.69155 -0.87328
C 13.55929 6.28404 0.51420
C 16.39995 6.02636 -1.74419
C 17.73178 5.72787 -1.09418
N 15.97271 0.75865 -0.84541
C 15.84153 1.54670 -2.00982
C 15.94692 0.63448 -3.16705
C 16.11035 -0.63421 -2.59067
C 16.08682 -0.52330 -1.17411
C 15.84063 1.01113 -4.53561
C 16.28678 -2.04341 -2.85846
O 16.46677 -2.71945 -3.87055
C 16.08256 -2.84515 -1.50129
C 17.21485 -3.82608 -1.36640
O 18.38325 -3.42633 -1.21924
O 16.70978 -5.06402 -1.21551
C 17.79421 -6.07083 -1.06667
H 14.31223 -0.71450 4.86230
H 15.03862 5.20446 3.00493
H 15.66451 3.31682 -2.95156
H 15.01589 -3.97572 1.22313
H 14.90856 -3.03376 3.87611
H 12.92562 -3.02147 1.63826
H 12.73269 -1.70209 2.81143
H 12.64864 -3.33757 3.39264
H 17.18287 -3.11404 3.15380
H 17.66515 -3.58008 1.48185
H 16.00334 -5.64198 2.52803
H 16.87885 -5.04247 3.89146
H 14.72806 0.25992 6.68393
H 14.20496 1.82844 7.19899
H 15.93895 1.44884 7.32519
H 14.92639 3.90002 7.60335
H 16.01536 5.40304 7.56119
H 16.65362 3.74641 7.35719
H 15.64140 6.34837 0.80770
H 14.40903 5.34910 -1.71013
H 13.60086 7.32842 0.87697
H 12.90721 5.68967 1.14033
H 13.01910 6.30169 -0.43083
H 16.22689 7.09808 -1.61928
H 16.47365 5.83404 -2.80936
H 17.73822 6.39507 -0.22707
H 18.54981 5.95661 -1.77429
H 17.76443 4.69861 -0.71839
H 16.62415 0.48543 -5.06497
H 15.92964 2.08839 -4.65956
H 14.83148 0.65432 -4.75829
H 15.11391 -3.34326 -1.55764
H 17.63544 -6.82819 -1.84054
H 17.74618 -6.40826 -0.01425
H 18.80674 -5.75305 -1.28632

