%nproc=24
%mem=175gb
#p cam-b3lyp/Def2SVP td=(nstates=5)

TDDFT excited states in gaussian

0 1
Mg 0.00000 0.00000 0.00000
C -0.21700 -2.21800 2.80100
C -1.25500 2.44200 2.02600
C -0.24500 1.85000 -2.56400
C 0.14600 -2.82400 -2.03700
N -0.61700 -0.00900 2.12600
C -0.59400 -0.90800 3.10500
C -0.93600 -0.30900 4.50200
C -1.77300 0.96400 4.03200
C -1.15500 1.16800 2.66000
C -3.26300 0.68500 3.86300
C 0.34500 0.11000 5.29900
C 0.12400 0.39700 6.78700
H 1.16800 0.03300 7.73300
N -0.18500 1.96100 -0.15200
C -0.70300 2.80000 0.77700
C -0.62000 4.15600 0.19300
C -0.18700 4.01500 -1.22500
C -0.21400 2.58300 -1.38000
C -0.88700 5.40600 0.97400
C 0.18100 5.01300 -2.27700
O 0.30300 4.69000 -3.50800
C 0.31000 6.41400 -1.83700
N -0.26500 -0.41300 -2.02900
C -0.27900 0.56900 -2.93700
C -0.19600 0.02400 -4.33200
C 0.12400 -1.53300 -4.18000
C 0.08600 -1.63200 -2.63500
C -1.45100 0.20500 -5.19700
C 1.37300 -2.07000 -4.92300
C 2.62600 -1.49000 -4.30600
N 0.15000 -2.14400 0.30300
C 0.17300 -3.13600 -0.68800
C 0.17300 -4.43800 0.00400
C 0.13300 -4.11100 1.35800
C 0.08300 -2.69500 1.50200
C 0.14900 -5.71500 -0.62300
C 0.09600 -4.62900 2.71600
O 0.20800 -5.74700 3.22100
C -0.25500 -3.42800 3.70100
C 0.71700 -3.48200 4.84800
O 1.93100 -3.25500 4.66900
O 0.03800 -3.55600 6.00300
C 0.94300 -3.58300 7.18300
H -1.85900 3.22000 2.49700
H -0.21800 2.45300 -3.47400
H 0.27600 -3.74700 -2.60500
H -1.55400 -0.94900 5.13200
H -1.58500 1.83100 4.66500
H -3.48400 -0.37700 3.96900
H -3.51100 1.02700 2.85800
H -3.85200 1.30100 4.54300
H 0.66900 1.09600 4.96600
H 1.13000 -0.63900 5.18900
H -0.84400 0.02600 7.12500
H 0.06200 1.47700 6.92100
H -1.34400 5.18600 1.93800
H -1.65100 5.96300 0.43200
H 0.00700 6.02000 1.08400
H -0.63500 6.74400 -1.40500
H 0.66500 6.97000 -2.70400
H 1.04800 6.46600 -1.03600
H 0.60800 0.50100 -4.89100
H -0.69200 -2.15600 -4.54700
H -1.26700 0.74000 -6.12900
H -2.20400 0.71400 -4.59600
H -1.96700 -0.72000 -5.45300
H 1.35600 -1.75900 -5.96700
H 1.45200 -3.15700 -4.90200
H 2.71400 -0.52200 -4.79800
H 3.48700 -2.12100 -4.52900
H 2.49500 -1.30300 -3.24000
H 0.86700 -6.33300 -0.08400
H 0.40400 -5.64200 -1.68000
H -0.89100 -5.99900 -0.46300
H -1.28300 -3.58100 4.02800
H 0.69800 -4.47800 7.75500
H 0.83300 -2.61900 7.68000
H 2.00000 -3.75400 6.97600
Mg 13.14576 1.18134 1.00569
C 11.10760 -0.25898 3.58454
C 13.86516 3.70144 3.18884
C 14.58048 2.70426 -1.37962
C 11.39361 -0.77929 -1.28158
N 12.50868 1.56064 3.08956
C 11.78220 0.91234 3.98749
C 11.84310 1.51156 5.41815
C 12.24478 3.01748 5.03121
C 12.94959 2.74890 3.70314
C 11.04476 3.91044 4.76305
C 12.94580 0.83254 6.30414
C 12.85588 1.15018 7.79839
H 13.21494 0.10657 8.75465
N 14.46612 2.66263 1.03729
C 14.63708 3.57963 2.01257
C 15.71831 4.46301 1.54915
C 16.05932 4.09218 0.14882
C 15.01143 3.13139 -0.13207
C 16.37402 5.48097 2.43640
C 17.14093 4.53905 -0.78746
O 17.10600 4.26124 -2.03824
C 18.19365 5.39044 -0.21440
N 12.86925 1.15235 -1.05466
C 13.66326 1.86961 -1.86891
C 13.45763 1.48008 -3.31333
C 12.53107 0.17705 -3.27918
C 12.27694 0.08703 -1.75843
C 12.81038 2.54131 -4.20285
C 13.06167 -1.08332 -4.01580
C 14.28157 -1.62198 -3.30372
N 11.67177 -0.39451 1.11574
C 11.05219 -1.05991 0.03526
C 10.03823 -1.96914 0.60764
C 10.12300 -1.75103 1.99101
C 11.10536 -0.76009 2.26029
C 9.16217 -2.81079 -0.13417
C 9.59739 -2.12605 3.28399
O 8.80811 -2.97972 3.68652
C 10.12275 -1.08521 4.36429
C 10.63901 -1.86159 5.54465
O 11.63790 -2.59375 5.43162
O 10.00523 -1.44631 6.65651
C 10.49104 -2.17946 7.85581
H 13.97353 4.65194 3.71198
H 15.12198 3.11901 -2.23299
H 10.87408 -1.49544 -1.92181
H 10.90168 1.50393 5.95429
H 12.93946 3.43889 5.75315
H 10.11998 3.35284 4.76157
H 11.22003 4.35504 3.79215
H 11.02561 4.74016 5.47546
H 13.91889 1.28520 6.07406
H 12.94903 -0.23043 6.16022
H 11.89328 1.60238 8.06647
H 13.59038 1.92432 8.03341
H 15.80166 5.63884 3.35883
H 16.31909 6.44258 1.91472
H 17.42146 5.24917 2.64090
H 17.74415 6.28701 0.20580
H 18.92230 5.53285 -1.01481
H 18.66304 4.85403 0.61780
H 14.40017 1.22882 -3.78406
H 11.55421 0.35923 -3.75078
H 13.42481 2.80615 -5.08400
H 12.61255 3.41763 -3.59996
H 11.81927 2.28914 -4.57611
H 13.38237 -0.82364 -5.02767
H 12.32430 -1.87413 -4.10466
H 15.09218 -1.00361 -3.70073
H 14.43259 -2.67249 -3.54384
H 14.22227 -1.43504 -2.22520
H 9.14664 -3.76702 0.37167
H 9.48812 -2.91191 -1.16727
H 8.23078 -2.24431 -0.05118
H 9.28480 -0.44082 4.63295
H 9.61410 -2.62719 8.33352
H 11.06377 -1.43990 8.44638
H 11.11164 -3.05267 7.69213

