%nproc=24
%mem=175gb
#p cam-b3lyp/Def2SVP td=(nstates=5)

TDDFT excited states in gaussian

0 1
Mg 0.00000 0.00000 0.00000
C -0.21700 -2.21800 2.80100
C -1.25500 2.44200 2.02600
C -0.24500 1.85000 -2.56400
C 0.14600 -2.82400 -2.03700
N -0.61700 -0.00900 2.12600
C -0.59400 -0.90800 3.10500
C -0.93600 -0.30900 4.50200
C -1.77300 0.96400 4.03200
C -1.15500 1.16800 2.66000
C -3.26300 0.68500 3.86300
C 0.34500 0.11000 5.29900
C 0.12400 0.39700 6.78700
H 1.16800 0.03300 7.73300
N -0.18500 1.96100 -0.15200
C -0.70300 2.80000 0.77700
C -0.62000 4.15600 0.19300
C -0.18700 4.01500 -1.22500
C -0.21400 2.58300 -1.38000
C -0.88700 5.40600 0.97400
C 0.18100 5.01300 -2.27700
O 0.30300 4.69000 -3.50800
C 0.31000 6.41400 -1.83700
N -0.26500 -0.41300 -2.02900
C -0.27900 0.56900 -2.93700
C -0.19600 0.02400 -4.33200
C 0.12400 -1.53300 -4.18000
C 0.08600 -1.63200 -2.63500
C -1.45100 0.20500 -5.19700
C 1.37300 -2.07000 -4.92300
C 2.62600 -1.49000 -4.30600
N 0.15000 -2.14400 0.30300
C 0.17300 -3.13600 -0.68800
C 0.17300 -4.43800 0.00400
C 0.13300 -4.11100 1.35800
C 0.08300 -2.69500 1.50200
C 0.14900 -5.71500 -0.62300
C 0.09600 -4.62900 2.71600
O 0.20800 -5.74700 3.22100
C -0.25500 -3.42800 3.70100
C 0.71700 -3.48200 4.84800
O 1.93100 -3.25500 4.66900
O 0.03800 -3.55600 6.00300
C 0.94300 -3.58300 7.18300
H -1.85900 3.22000 2.49700
H -0.21800 2.45300 -3.47400
H 0.27600 -3.74700 -2.60500
H -1.55400 -0.94900 5.13200
H -1.58500 1.83100 4.66500
H -3.48400 -0.37700 3.96900
H -3.51100 1.02700 2.85800
H -3.85200 1.30100 4.54300
H 0.66900 1.09600 4.96600
H 1.13000 -0.63900 5.18900
H -0.84400 0.02600 7.12500
H 0.06200 1.47700 6.92100
H -1.34400 5.18600 1.93800
H -1.65100 5.96300 0.43200
H 0.00700 6.02000 1.08400
H -0.63500 6.74400 -1.40500
H 0.66500 6.97000 -2.70400
H 1.04800 6.46600 -1.03600
H 0.60800 0.50100 -4.89100
H -0.69200 -2.15600 -4.54700
H -1.26700 0.74000 -6.12900
H -2.20400 0.71400 -4.59600
H -1.96700 -0.72000 -5.45300
H 1.35600 -1.75900 -5.96700
H 1.45200 -3.15700 -4.90200
H 2.71400 -0.52200 -4.79800
H 3.48700 -2.12100 -4.52900
H 2.49500 -1.30300 -3.24000
H 0.86700 -6.33300 -0.08400
H 0.40400 -5.64200 -1.68000
H -0.89100 -5.99900 -0.46300
H -1.28300 -3.58100 4.02800
H 0.69800 -4.47800 7.75500
H 0.83300 -2.61900 7.68000
H 2.00000 -3.75400 6.97600
Mg 10.51594 0.94933 0.78967
C 13.27679 -1.34337 0.77187
C 12.80592 3.47279 0.94058
C 8.11339 2.96773 1.26003
C 8.49325 -1.71064 1.77909
N 12.72712 0.93958 0.84303
C 13.66915 0.01143 0.76901
C 15.10906 0.56799 0.60635
C 14.87800 2.02315 1.24509
C 13.38470 2.17876 0.96490
C 15.08806 2.06021 2.74970
C 15.54657 0.66365 -0.89746
C 17.04157 0.90449 -1.11819
H 17.68530 0.27657 -2.26876
N 10.43333 2.92033 0.57306
C 11.46267 3.79038 0.64197
C 10.87682 5.12390 0.43542
C 9.39542 4.98556 0.40316
C 9.25273 3.59167 0.77304
C 11.70950 6.35277 0.21193
C 8.28957 5.95163 0.10318
O 7.06565 5.67705 0.36671
C 8.69084 7.26503 -0.42167
N 8.62765 0.72242 1.62942
C 7.75826 1.74758 1.66306
C 6.37784 1.27942 2.05758
C 6.44667 -0.31831 2.04691
C 7.94470 -0.50489 1.72058
C 5.87728 1.75790 3.42025
C 5.40123 -1.06194 1.17127
C 5.66497 -0.78789 -0.29185
N 10.75883 -1.18415 1.02907
C 9.79000 -2.10778 1.47891
C 10.45723 -3.42153 1.58519
C 11.78417 -3.16438 1.20889
C 11.93820 -1.78364 0.90999
C 9.85007 -4.62926 2.03113
C 13.09213 -3.74498 1.00679
O 13.54702 -4.88802 1.02256
C 14.14670 -2.56797 0.83674
C 15.00463 -2.88205 -0.35819
O 14.51214 -2.91106 -1.49977
O 16.29731 -2.88148 0.01511
C 17.18836 -3.17722 -1.13832
H 13.42785 4.32460 1.21720
H 7.22527 3.59950 1.33481
H 7.90775 -2.60891 1.98640
H 15.86844 0.03334 1.16427
H 15.44667 2.78230 0.71437
H 15.24321 1.07313 3.15927
H 14.19085 2.50381 3.16114
H 15.90428 2.74406 2.99963
H 15.14154 1.58749 -1.33013
H 15.23693 -0.20803 -1.44053
H 17.62636 0.72842 -0.20716
H 17.19412 1.96478 -1.33387
H 12.76416 6.17369 0.45490
H 11.38419 7.09739 0.94649
H 11.58671 6.76819 -0.79057
H 9.35514 7.75044 0.28935
H 7.75899 7.78228 -0.65830
H 9.26935 7.11304 -1.33973
H 5.63840 1.60413 1.33585
H 6.28884 -0.73965 3.05060
H 4.91904 2.30814 3.36465
H 6.64469 2.37504 3.86832
H 5.74638 0.97484 4.16515
H 4.39636 -0.68725 1.38100
H 5.38562 -2.13438 1.33448
H 5.17153 0.17484 -0.45545
H 5.22649 -1.56667 -0.91256
H 6.73568 -0.64550 -0.47882
H 10.18002 -5.41023 1.35904
H 8.76523 -4.54745 2.04472
H 10.26919 -4.69785 3.03856
H 14.72988 -2.51515 1.75689
H 17.80378 -4.03652 -0.85452
H 17.71626 -2.23033 -1.35848
H 16.72588 -3.53981 -2.04886

