%nproc=24
%mem=175gb
#p cam-b3lyp/Def2SVP td=(nstates=5)

TDDFT excited states in gaussian

0 1
Mg 10.50687 0.95422 0.80421
C 12.74898 0.94681 3.60635
C 7.97950 0.35642 3.01547
C 8.57727 0.50750 -1.67460
C 13.27840 0.41091 -1.23763
N 10.49174 0.70483 3.00190
C 11.39523 0.78375 3.96721
C 10.80586 0.76267 5.40309
C 9.42372 0.00956 5.08469
C 9.26168 0.40562 3.61855
C 9.53171 -1.50431 5.16136
C 10.55708 2.20511 5.96832
C 10.27541 2.26718 7.47117
H 10.77852 3.41093 8.22695
N 8.52544 0.98594 0.69704
C 7.65244 0.74169 1.69679
C 6.31317 0.86995 1.10173
C 6.46782 1.04755 -0.36771
C 7.89310 0.82827 -0.51118
C 5.05709 0.89845 1.92323
C 5.49209 1.35036 -1.46428
O 5.80784 1.22491 -2.70016
C 4.12817 1.70795 -1.04793
N 10.84080 0.31227 -1.14482
C 9.83581 0.25753 -2.03641
C 10.35919 0.03491 -3.43531
C 11.94706 0.19366 -3.33028
C 12.08031 0.40142 -1.80565
C 10.02365 -1.31745 -4.06374
C 12.61528 1.22686 -4.27824
C 12.19534 2.62725 -3.89362
N 12.65005 0.90128 1.07263
C 13.62647 0.63106 0.08893
C 14.93511 0.59302 0.77336
C 14.62423 0.82274 2.12209
C 13.21885 0.97193 2.27093
C 16.18894 0.32182 0.15653
C 15.16434 0.96238 3.45531
O 16.29712 1.01654 3.93241
C 13.96209 0.92312 4.49428
C 14.14563 2.06139 5.46028
O 14.06911 3.23984 5.07037
O 14.16413 1.57587 6.71499
C 14.33304 2.66828 7.70994
H 7.15059 -0.05560 3.59169
H 7.96804 0.45164 -2.57970
H 14.20057 0.34444 -1.81890
H 11.38232 0.19345 6.12243
H 8.60847 0.41157 5.68059
H 10.55202 -1.82883 5.30199
H 9.14289 -1.87491 4.22193
H 8.86466 -1.89100 5.93715
H 9.60081 2.58095 5.58226
H 11.37535 2.85531 5.72687
H 10.53210 1.32887 7.97774
H 9.19709 2.36495 7.61838
H 5.24479 0.58073 2.95630
H 4.39268 0.12739 1.51839
H 4.54695 1.86308 1.87944
H 3.70592 0.89692 -0.45939
H 3.60291 1.97576 -1.96677
H 4.18141 2.58106 -0.38804
H 9.97527 0.78503 -4.11578
H 12.46702 -0.74652 -3.56594
H 9.48371 -1.22992 -5.02544
H 9.44311 -1.88975 -3.35242
H 10.87778 -1.96855 -4.24188
H 12.27669 1.07248 -5.30571
H 13.69867 1.17005 -4.28421
H 11.22800 2.74050 -4.39214
H 12.91531 3.35695 -4.25864
H 12.02073 2.70325 -2.81409
H 16.89559 1.03405 0.56133
H 16.12362 0.39731 -0.92690
H 16.35040 -0.70765 0.48728
H 13.99193 -0.04622 4.99335
H 15.20761 2.41500 8.31712
H 13.36202 2.74794 8.23389
H 14.61075 3.64723 7.33712

