%nproc=24
%mem=175gb
#p cam-b3lyp/Def2SVP td=(nstates=5)

TDDFT excited states in gaussian

0 1
Mg 0.00000 0.00000 0.00000
C -0.21700 -2.21800 2.80100
C -1.25500 2.44200 2.02600
C -0.24500 1.85000 -2.56400
C 0.14600 -2.82400 -2.03700
N -0.61700 -0.00900 2.12600
C -0.59400 -0.90800 3.10500
C -0.93600 -0.30900 4.50200
C -1.77300 0.96400 4.03200
C -1.15500 1.16800 2.66000
C -3.26300 0.68500 3.86300
C 0.34500 0.11000 5.29900
C 0.12400 0.39700 6.78700
H 1.16800 0.03300 7.73300
N -0.18500 1.96100 -0.15200
C -0.70300 2.80000 0.77700
C -0.62000 4.15600 0.19300
C -0.18700 4.01500 -1.22500
C -0.21400 2.58300 -1.38000
C -0.88700 5.40600 0.97400
C 0.18100 5.01300 -2.27700
O 0.30300 4.69000 -3.50800
C 0.31000 6.41400 -1.83700
N -0.26500 -0.41300 -2.02900
C -0.27900 0.56900 -2.93700
C -0.19600 0.02400 -4.33200
C 0.12400 -1.53300 -4.18000
C 0.08600 -1.63200 -2.63500
C -1.45100 0.20500 -5.19700
C 1.37300 -2.07000 -4.92300
C 2.62600 -1.49000 -4.30600
N 0.15000 -2.14400 0.30300
C 0.17300 -3.13600 -0.68800
C 0.17300 -4.43800 0.00400
C 0.13300 -4.11100 1.35800
C 0.08300 -2.69500 1.50200
C 0.14900 -5.71500 -0.62300
C 0.09600 -4.62900 2.71600
O 0.20800 -5.74700 3.22100
C -0.25500 -3.42800 3.70100
C 0.71700 -3.48200 4.84800
O 1.93100 -3.25500 4.66900
O 0.03800 -3.55600 6.00300
C 0.94300 -3.58300 7.18300
H -1.85900 3.22000 2.49700
H -0.21800 2.45300 -3.47400
H 0.27600 -3.74700 -2.60500
H -1.55400 -0.94900 5.13200
H -1.58500 1.83100 4.66500
H -3.48400 -0.37700 3.96900
H -3.51100 1.02700 2.85800
H -3.85200 1.30100 4.54300
H 0.66900 1.09600 4.96600
H 1.13000 -0.63900 5.18900
H -0.84400 0.02600 7.12500
H 0.06200 1.47700 6.92100
H -1.34400 5.18600 1.93800
H -1.65100 5.96300 0.43200
H 0.00700 6.02000 1.08400
H -0.63500 6.74400 -1.40500
H 0.66500 6.97000 -2.70400
H 1.04800 6.46600 -1.03600
H 0.60800 0.50100 -4.89100
H -0.69200 -2.15600 -4.54700
H -1.26700 0.74000 -6.12900
H -2.20400 0.71400 -4.59600
H -1.96700 -0.72000 -5.45300
H 1.35600 -1.75900 -5.96700
H 1.45200 -3.15700 -4.90200
H 2.71400 -0.52200 -4.79800
H 3.48700 -2.12100 -4.52900
H 2.49500 -1.30300 -3.24000
H 0.86700 -6.33300 -0.08400
H 0.40400 -5.64200 -1.68000
H -0.89100 -5.99900 -0.46300
H -1.28300 -3.58100 4.02800
H 0.69800 -4.47800 7.75500
H 0.83300 -2.61900 7.68000
H 2.00000 -3.75400 6.97600
Mg 13.14732 1.18666 0.99347
C 15.64752 -0.96939 2.40042
C 14.81364 3.80030 2.41715
C 10.72693 3.05834 0.15326
C 11.10682 -1.62015 0.67120
N 14.98197 1.27684 2.22561
C 15.88187 0.39989 2.64453
C 17.14147 1.03189 3.29533
C 16.50076 2.43303 3.74829
C 15.38142 2.53561 2.71425
C 15.87128 2.38804 5.13070
C 18.30640 1.23938 2.26484
C 19.66617 1.56271 2.88791
H 20.86825 1.03684 2.24687
N 13.05138 3.16120 0.81858
C 13.81886 4.07250 1.45245
C 13.33962 5.38734 0.99894
C 12.11905 5.18227 0.17258
C 11.90175 3.76328 0.37096
C 14.07178 6.66506 1.29015
C 11.27822 6.11219 -0.64866
O 10.12633 5.76526 -1.09096
C 11.80189 7.47244 -0.84098
N 11.12460 0.82112 0.68151
C 10.30046 1.80065 0.27012
C 8.96074 1.24541 -0.15091
C 9.13958 -0.34373 -0.16518
C 10.58912 -0.43998 0.35918
C 7.77673 1.61604 0.74191
C 8.78037 -1.08055 -1.48455
C 9.76433 -0.70579 -2.56934
N 13.37780 -0.94379 1.26935
C 12.38804 -1.93732 1.10395
C 12.98796 -3.22254 1.51714
C 14.28811 -2.88130 1.91921
C 14.47799 -1.47923 1.78641
C 12.32540 -4.48223 1.53516
C 15.53960 -3.38685 2.43583
O 15.99672 -4.50626 2.66319
C 16.43386 -2.15375 2.88988
C 17.81743 -2.35401 2.33476
O 18.01451 -2.33630 1.10698
O 18.70679 -2.31590 3.34369
C 20.09477 -2.49887 2.84184
H 15.12832 4.66174 3.00688
H 9.89339 3.64225 -0.24390
H 10.56767 -2.55573 0.50784
H 17.52160 0.50023 4.15939
H 17.20853 3.24883 3.62625
H 15.85434 1.38614 5.53326
H 14.86382 2.76339 5.00754
H 16.37598 3.09271 5.79783
H 18.12978 2.16799 1.70695
H 18.39852 0.38894 1.61761
H 19.68478 1.35890 3.96543
H 19.83345 2.64015 2.81601
H 14.84323 6.52090 2.05663
H 13.35172 7.34752 1.75450
H 14.47393 7.13466 0.38992
H 11.94663 7.94405 0.12808
H 11.10613 7.95912 -1.52723
H 12.79054 7.40386 -1.30842
H 8.70005 1.57868 -1.14794
H 8.50086 -0.83240 0.58521
H 6.95965 2.12334 0.19500
H 8.13927 2.23984 1.54812
H 7.32500 0.78376 1.27899
H 7.79493 -0.76663 -1.83743
H 8.75734 -2.16050 -1.38368
H 9.36671 0.24105 -2.94680
H 9.78272 -1.46487 -3.34876
H 10.75579 -0.50246 -2.14825
H 13.01862 -5.20452 1.12500
H 11.39849 -4.45209 0.96622
H 12.14521 -4.59249 2.60784
H 16.42973 -2.12999 3.98029
H 20.52347 -3.34423 3.38889
H 20.58878 -1.51672 2.96473
H 20.21776 -2.82645 1.81616

