%nproc=24
%mem=175gb
#p cam-b3lyp/Def2SVP td=(nstates=5)

TDDFT excited states in gaussian

0 1
Mg 10.51895 0.94169 0.79336
C 10.39630 2.65647 -2.35681
C 10.02809 -1.95755 -0.93524
C 10.17219 -0.54244 3.57626
C 9.85796 4.00075 2.32664
N 10.26086 0.53128 -1.36470
C 10.29397 1.25459 -2.47379
C 10.29366 0.42278 -3.78438
C 9.60620 -0.91443 -3.22033
C 10.01573 -0.79974 -1.75343
C 8.08865 -0.88890 -3.29597
C 11.74351 0.14329 -4.31529
C 11.81183 -0.39388 -5.74655
H 12.92794 0.01957 -6.59262
N 10.64208 -0.98704 1.24434
C 10.43377 -2.03145 0.41543
C 10.62599 -3.23892 1.23348
C 10.80277 -2.82187 2.65106
C 10.51892 -1.40465 2.54624
C 10.70852 -4.61682 0.64355
C 11.15487 -3.57630 3.89728
O 11.02049 -3.05511 5.06053
C 11.57287 -4.97476 3.72102
N 9.87093 1.58256 2.66196
C 9.86630 0.74762 3.71589
C 9.62604 1.49721 5.00460
C 9.71127 3.04769 4.62207
C 9.90599 2.92128 3.09514
C 8.29329 1.21704 5.69862
C 10.71686 3.91668 5.42600
C 12.13335 3.49857 5.10331
N 10.36650 3.00037 0.15565
C 10.05607 4.12083 0.95707
C 9.95498 5.28656 0.05525
C 10.19280 4.75506 -1.22125
C 10.40569 3.35335 -1.12433
C 9.62921 6.61565 0.44706
C 10.30163 5.05928 -2.62990
O 10.30163 6.09240 -3.29803
C 10.31303 3.69328 -3.44250
C 11.43742 3.75540 -4.43969
O 12.61984 3.80071 -4.05701
O 10.94605 3.53253 -5.67228
C 12.02517 3.57316 -6.69486
H 9.65203 -2.89195 -1.35279
H 10.14834 -0.98582 4.57442
H 9.75179 5.00650 2.73879
H 9.69541 0.83864 -4.58621
H 10.04259 -1.80268 -3.66971
H 7.71701 0.07564 -3.60852
H 7.74042 -1.12346 -2.29859
H 7.72959 -1.69788 -3.93858
H 12.16454 -0.71304 -3.77291
H 12.35650 1.01926 -4.22843
H 10.86050 -0.27172 -6.27852
H 11.95835 -1.47591 -5.70448
H 10.37798 -4.62703 -0.40241
H 9.97057 -5.23376 1.16765
H 11.69573 -5.06806 0.76379
H 10.77950 -5.52907 3.22528
H 11.86855 -5.31876 4.71405
H 12.43970 -4.99904 3.05123
H 10.39598 1.27197 5.73232
H 8.74925 3.55856 4.77495
H 8.40975 0.85808 6.73865
H 7.74512 0.49616 5.10668
H 7.60445 2.05937 5.73297
H 10.58271 3.75653 6.49862
H 10.61040 4.98079 5.24348
H 12.29307 2.63936 5.76159
H 12.83082 4.30299 5.32801
H 12.21253 3.14136 4.06997
H 10.30647 7.27153 -0.08364
H 9.71239 6.74428 1.52424
H 8.59198 6.67086 0.10595
H 9.34116 3.59226 -3.92711
H 11.72934 4.31589 -7.44220
H 12.14702 2.52997 -7.04221
H 12.99197 3.95502 -6.38836

