%nproc=24
%mem=175gb
#p cam-b3lyp/Def2SVP td=(nstates=5)

TDDFT excited states in gaussian

0 1
Mg 13.14634 1.18361 0.99089
C 12.71737 4.57211 -0.11052
C 12.59472 0.22279 -2.23512
C 13.07106 -1.82239 2.00366
C 12.52998 2.30572 4.23229
N 12.72271 2.34089 -0.84582
C 12.64439 3.62654 -1.15455
C 12.55899 3.91843 -2.67674
C 11.95742 2.50953 -3.15838
C 12.48311 1.62156 -2.03240
C 10.43867 2.46352 -3.13347
C 13.96730 4.18945 -3.31331
C 13.93222 4.78296 -4.72337
H 14.96301 5.74686 -5.09867
N 13.35926 -0.51535 -0.01249
C 13.11219 -0.72294 -1.32289
C 13.40433 -2.14389 -1.56721
C 13.68577 -2.79648 -0.25968
C 13.35533 -1.71776 0.64986
C 13.47587 -2.73465 -2.94537
C 14.15999 -4.16895 0.11133
O 14.10763 -4.59594 1.31871
C 14.60039 -5.03166 -0.99468
N 12.63709 0.32206 2.81318
C 12.74231 -1.00475 3.00401
C 12.58852 -1.35980 4.46370
C 12.59921 0.03375 5.24824
C 12.67086 1.00051 4.04590
C 11.32570 -2.13961 4.82918
C 13.64332 0.19213 6.38729
C 15.03938 0.21765 5.80783
N 12.88524 3.10227 1.94933
C 12.61118 3.34413 3.31333
C 12.40407 4.79902 3.46446
C 12.55044 5.30385 2.16361
C 12.80910 4.23635 1.26193
C 12.07523 5.47111 4.67536
C 12.53441 6.49581 1.34651
O 12.45091 7.70245 1.57188
C 12.51642 6.06044 -0.18206
C 13.55268 6.87321 -0.90875
O 14.76091 6.73511 -0.64852
O 12.96774 7.51623 -1.93575
C 13.95740 8.32729 -2.69376
H 12.21140 -0.19895 -3.16468
H 13.14175 -2.82831 2.42392
H 12.43047 2.74601 5.22673
H 11.88548 4.72254 -2.94800
H 12.37959 2.20528 -4.11262
H 10.01613 3.34888 -2.68209
H 10.18040 1.58489 -2.55698
H 10.05028 2.28796 -4.14077
H 14.45501 3.22935 -3.52566
H 14.56102 4.81294 -2.67349
H 12.93729 5.16237 -4.98626
H 14.11145 3.97994 -5.44244
H 13.06067 -2.05248 -3.69748
H 12.80088 -3.59724 -2.95895
H 14.48168 -3.06878 -3.20873
H 13.78443 -5.15600 -1.70264
H 14.98624 -5.93746 -0.52296
H 15.40942 -4.52511 -1.53271
H 13.42170 -1.96171 4.80516
H 11.63937 0.22643 5.74964
H 11.53730 -3.10211 5.33206
H 10.75067 -2.30033 3.92693
H 10.61911 -1.60436 5.46119
H 13.60247 -0.66752 7.06071
H 13.49293 1.08121 6.99053
H 15.27639 -0.84377 5.68829
H 15.73058 0.70146 6.49501
H 15.04295 0.67066 4.80962
H 12.68814 6.36184 4.71340
H 12.24331 4.83464 5.54163
H 11.01229 5.66489 4.50842
H 11.51108 6.24389 -0.56312
H 13.58066 9.35460 -2.71327
H 14.07888 7.81674 -3.66758
H 14.93529 8.46907 -2.24868

