%nproc=24
%mem=175gb
#p cam-b3lyp/Def2SVP td=(nstates=5)

TDDFT excited states in gaussian

0 1
Mg 15.77238 1.42263 1.18963
C 18.54674 -0.83293 1.49694
C 17.98844 3.97439 1.65030
C 13.30072 3.40365 1.37366
C 13.68054 -1.27475 1.89248
N 17.95934 1.44160 1.51994
C 18.91662 0.52690 1.55603
C 20.35731 1.10426 1.58055
C 20.02688 2.54905 2.19884
C 18.57836 2.68796 1.73495
C 20.04613 2.57218 3.71819
C 20.97842 1.22242 0.14449
C 22.48564 1.48549 0.11536
H 23.27757 0.87899 -0.95116
N 15.68891 3.39464 0.98282
C 16.68874 4.27744 1.18849
C 16.11406 5.60529 0.92255
C 14.65056 5.44769 0.70337
C 14.48292 4.04801 1.03935
C 16.95022 6.84750 0.81683
C 13.57709 6.40229 0.27604
O 12.33391 6.10861 0.38133
C 14.02183 7.72665 -0.18199
N 13.79723 1.16139 1.78364
C 12.91566 2.17450 1.71751
C 11.50363 1.68373 1.93129
C 11.59649 0.08727 1.91439
C 13.12616 -0.07580 1.77689
C 10.82932 2.14037 3.22481
C 10.67998 -0.66038 0.90757
C 11.12100 -0.36662 -0.50826
N 16.01436 -0.70997 1.43763
C 15.01032 -1.65130 1.75368
C 15.67801 -2.95719 1.93055
C 17.03776 -2.67831 1.72615
C 17.20794 -1.29242 1.46188
C 15.03737 -4.17774 2.28546
C 18.36904 -3.23924 1.68435
O 18.83495 -4.37626 1.74638
C 19.41939 -2.04654 1.65899
C 20.42479 -2.33592 0.57828
O 20.07974 -2.35877 -0.61630
O 21.66034 -2.32236 1.11082
C 22.69314 -2.59343 0.07561
H 18.55833 4.83124 2.01074
H 12.40114 4.02272 1.34232
H 13.08680 -2.18295 2.01626
H 21.04847 0.57356 2.22431
H 20.64648 3.32152 1.75080
H 20.16307 1.58275 4.13474
H 19.09807 2.99924 4.01793
H 20.81455 3.26397 4.07496
H 20.61742 2.14556 -0.32692
H 20.75200 0.35280 -0.44128
H 22.95413 1.30709 1.09088
H 22.64858 2.55005 -0.06954
H 17.96860 6.67973 1.18852
H 16.52462 7.57954 1.51170
H 16.94802 7.27237 -0.18923
H 14.58464 8.21289 0.61128
H 13.11957 8.23410 -0.52882
H 14.71300 7.59255 -1.02158
H 10.85584 2.00661 1.12555
H 11.32025 -0.34725 2.88636
H 9.87771 2.67843 3.05455
H 11.52546 2.76261 3.77139
H 10.61750 1.34740 3.94003
H 9.65140 -0.30140 0.99305
H 10.65963 -1.73468 1.05748
H 10.63801 0.59124 -0.72346
H 10.77516 -1.14420 -1.18635
H 12.20452 -0.20798 -0.55806
H 15.46028 -4.94676 1.65280
H 13.95830 -4.11048 2.16357
H 15.32787 -4.25196 3.33683
H 19.88180 -1.99622 2.64551
H 23.28057 -3.44760 0.42633
H 23.23065 -1.63724 -0.06770
H 22.35376 -2.95199 -0.88913

