%nproc=24
%mem=175gb
#p cam-b3lyp/Def2SVP td=(nstates=5)

TDDFT excited states in gaussian

0 1
Mg 15.75807 1.42298 1.20333
C 13.46246 -1.31635 0.87889
C 13.39171 3.38602 -0.27364
C 17.91499 3.74582 1.06333
C 18.29875 -0.93228 1.58203
N 13.72843 0.97725 0.44564
C 12.93813 -0.08558 0.43200
C 11.47984 0.20296 -0.01486
C 11.75004 1.53310 -0.87310
C 13.01627 2.02254 -0.17324
C 12.08666 1.25244 -2.32818
C 10.52757 0.48649 1.19955
C 9.03472 0.47072 0.86353
H 8.10228 -0.04777 1.86063
N 15.52536 3.37855 0.95801
C 14.49319 4.00602 0.35618
C 14.80566 5.44233 0.41562
C 16.18375 5.60066 0.95461
C 16.61192 4.21675 0.99424
C 13.80943 6.50722 0.05933
C 16.98829 6.80022 1.35459
O 18.24906 6.72333 1.57226
C 16.27473 8.08507 1.39301
N 17.83427 1.41455 1.09530
C 18.53142 2.56428 1.09943
C 20.00671 2.30696 1.29361
C 20.12731 0.75554 1.66254
C 18.64441 0.34653 1.52431
C 20.89954 2.61491 0.09177
C 20.87227 0.40094 2.97858
C 20.07457 0.88249 4.16903
N 15.86946 -0.72430 1.41501
C 17.03655 -1.51020 1.53483
C 16.61061 -2.92477 1.53638
C 15.21625 -2.86388 1.39307
C 14.80440 -1.50785 1.28790
C 17.47449 -4.05359 1.61125
C 14.00019 -3.63880 1.29616
O 13.71875 -4.83126 1.40820
C 12.82338 -2.67650 0.83193
C 11.63963 -2.92566 1.72589
O 11.69314 -2.64931 2.93724
O 10.57413 -3.24292 0.96797
C 9.37228 -3.48840 1.80887
H 12.81333 4.03641 -0.93041
H 18.69049 4.51241 1.12966
H 19.02114 -1.72321 1.79475
H 11.03750 -0.56119 -0.64271
H 10.94449 2.25248 -0.75086
H 12.20493 0.19594 -2.51781
H 13.01262 1.77768 -2.52250
H 11.33844 1.70834 -2.98290
H 10.64016 1.53448 1.50580
H 10.72393 -0.19445 2.00478
H 8.83771 0.02116 -0.11730
H 8.69162 1.50289 0.75906
H 12.93935 6.08661 -0.45974
H 14.28482 7.15307 -0.68683
H 13.51739 7.11516 0.91828
H 15.85488 8.29447 0.41202
H 16.99338 8.80682 1.78608
H 15.42947 7.99529 2.08446
H 20.39696 2.89493 2.11525
H 20.68061 0.19581 0.89417
H 21.70323 3.34034 0.31959
H 20.27498 2.97960 -0.71288
H 21.37835 1.74876 -0.36180
H 21.83434 0.91751 3.02016
H 21.07118 -0.65973 3.08999
H 20.36034 1.93568 4.24787
H 20.35177 0.33019 5.06466
H 18.99866 0.84748 3.96202
H 17.02133 -4.74682 2.30736
H 18.47536 -3.76794 1.92817
H 17.45273 -4.38526 0.56972
H 12.60416 -2.90679 -0.21137
H 9.00405 -4.48747 1.55597
H 8.69298 -2.63713 1.61485
H 9.51953 -3.58176 2.87847

