%nproc=24
%mem=175gb
#p cam-b3lyp/Def2SVP td=(nstates=5)

TDDFT excited states in gaussian

0 1
Mg 0.00000 0.00000 0.00000
C -0.21700 -2.21800 2.80100
C -1.25500 2.44200 2.02600
C -0.24500 1.85000 -2.56400
C 0.14600 -2.82400 -2.03700
N -0.61700 -0.00900 2.12600
C -0.59400 -0.90800 3.10500
C -0.93600 -0.30900 4.50200
C -1.77300 0.96400 4.03200
C -1.15500 1.16800 2.66000
C -3.26300 0.68500 3.86300
C 0.34500 0.11000 5.29900
C 0.12400 0.39700 6.78700
H 1.16800 0.03300 7.73300
N -0.18500 1.96100 -0.15200
C -0.70300 2.80000 0.77700
C -0.62000 4.15600 0.19300
C -0.18700 4.01500 -1.22500
C -0.21400 2.58300 -1.38000
C -0.88700 5.40600 0.97400
C 0.18100 5.01300 -2.27700
O 0.30300 4.69000 -3.50800
C 0.31000 6.41400 -1.83700
N -0.26500 -0.41300 -2.02900
C -0.27900 0.56900 -2.93700
C -0.19600 0.02400 -4.33200
C 0.12400 -1.53300 -4.18000
C 0.08600 -1.63200 -2.63500
C -1.45100 0.20500 -5.19700
C 1.37300 -2.07000 -4.92300
C 2.62600 -1.49000 -4.30600
N 0.15000 -2.14400 0.30300
C 0.17300 -3.13600 -0.68800
C 0.17300 -4.43800 0.00400
C 0.13300 -4.11100 1.35800
C 0.08300 -2.69500 1.50200
C 0.14900 -5.71500 -0.62300
C 0.09600 -4.62900 2.71600
O 0.20800 -5.74700 3.22100
C -0.25500 -3.42800 3.70100
C 0.71700 -3.48200 4.84800
O 1.93100 -3.25500 4.66900
O 0.03800 -3.55600 6.00300
C 0.94300 -3.58300 7.18300
H -1.85900 3.22000 2.49700
H -0.21800 2.45300 -3.47400
H 0.27600 -3.74700 -2.60500
H -1.55400 -0.94900 5.13200
H -1.58500 1.83100 4.66500
H -3.48400 -0.37700 3.96900
H -3.51100 1.02700 2.85800
H -3.85200 1.30100 4.54300
H 0.66900 1.09600 4.96600
H 1.13000 -0.63900 5.18900
H -0.84400 0.02600 7.12500
H 0.06200 1.47700 6.92100
H -1.34400 5.18600 1.93800
H -1.65100 5.96300 0.43200
H 0.00700 6.02000 1.08400
H -0.63500 6.74400 -1.40500
H 0.66500 6.97000 -2.70400
H 1.04800 6.46600 -1.03600
H 0.60800 0.50100 -4.89100
H -0.69200 -2.15600 -4.54700
H -1.26700 0.74000 -6.12900
H -2.20400 0.71400 -4.59600
H -1.96700 -0.72000 -5.45300
H 1.35600 -1.75900 -5.96700
H 1.45200 -3.15700 -4.90200
H 2.71400 -0.52200 -4.79800
H 3.48700 -2.12100 -4.52900
H 2.49500 -1.30300 -3.24000
H 0.86700 -6.33300 -0.08400
H 0.40400 -5.64200 -1.68000
H -0.89100 -5.99900 -0.46300
H -1.28300 -3.58100 4.02800
H 0.69800 -4.47800 7.75500
H 0.83300 -2.61900 7.68000
H 2.00000 -3.75400 6.97600
Mg 31.53919 2.83587 2.40306
C 29.21652 1.76765 4.92162
C 32.67520 5.14478 4.64204
C 33.28092 4.09583 0.06932
C 29.49595 1.27189 0.05256
N 30.94352 3.29852 4.48233
C 30.09074 2.78557 5.35640
C 30.23466 3.34234 6.79822
C 30.91922 4.75133 6.44467
C 31.58725 4.37398 5.12406
C 29.91350 5.85752 6.17224
C 31.17273 2.45579 7.69044
C 31.11447 2.76345 9.18834
H 31.25247 1.65753 10.13193
N 33.11305 4.04217 2.48287
C 33.43366 4.89682 3.47689
C 34.67032 5.56785 3.04728
C 34.96333 5.15946 1.64654
C 33.75959 4.41669 1.33125
C 35.48766 6.43184 3.96320
C 36.12783 5.40842 0.73652
O 36.06614 5.15987 -0.51936
C 37.31003 6.03870 1.34205
N 31.30291 2.88855 0.33817
C 32.23329 3.45536 -0.44989
C 31.98682 3.13190 -1.90420
C 30.83182 2.02576 -1.90855
C 30.53533 1.96353 -0.39408
C 31.56779 4.30832 -2.78559
C 31.13108 0.69873 -2.65829
C 32.21399 -0.06953 -1.93548
N 29.79393 1.56355 2.46061
C 29.08201 1.04177 1.35835
C 27.90441 0.33116 1.89755
C 28.00124 0.50984 3.28578
C 29.14650 1.29470 3.58889
C 26.90088 -0.32033 1.12645
C 27.38918 0.22195 4.56296
O 26.44601 -0.47388 4.93711
C 28.07898 1.13015 5.67009
C 28.41705 0.25397 6.84505
O 29.26293 -0.65111 6.73587
O 27.85056 0.76510 7.95330
C 28.16645 -0.06317 9.14745
H 32.94956 6.05050 5.18360
H 33.90735 4.41354 -0.76742
H 28.86408 0.67522 -0.60881
H 29.29811 3.50409 7.31830
H 31.66621 5.02447 7.18546
H 28.90077 5.48364 6.14544
H 30.18820 6.27500 5.21240
H 30.03624 6.66589 6.89874
H 32.21780 2.72081 7.48471
H 30.97938 1.41328 7.52788
H 30.24866 3.38457 9.44820
H 31.97634 3.38243 9.44924
H 34.93695 6.68133 4.87856
H 35.62437 7.39395 3.45771
H 36.46879 6.00455 4.18109
H 37.02844 6.99770 1.77041
H 38.06813 6.05303 0.55659
H 37.65395 5.41193 2.17241
H 32.87463 2.71476 -2.36344
H 29.91599 2.39486 -2.39315
H 32.23827 4.46548 -3.65152
H 31.52595 5.19756 -2.17074
H 30.55455 4.25212 -3.17977
H 31.51471 0.90785 -3.65991
H 30.26038 0.06185 -2.77340
H 33.13388 0.39112 -2.30790
H 32.17003 -1.12620 -2.19152
H 32.16952 0.10991 -0.85498
H 26.69629 -1.26370 1.61503
H 27.22243 -0.46623 0.09733
H 26.09080 0.40978 1.20381
H 27.37161 1.91660 5.93599
H 27.21184 -0.34493 9.60244
H 28.85595 0.54720 9.76047
H 28.61538 -1.03501 8.97882

