%nproc=24
%mem=175gb
#p cam-b3lyp/Def2SVP td=(nstates=5)

TDDFT excited states in gaussian

0 1
Mg 13.12849 1.18541 0.99602
C 12.09274 -1.63300 -0.96940
C 12.37965 3.14613 -1.69274
C 14.45082 3.62601 2.53300
C 14.83381 -1.05199 3.05310
N 12.34376 0.70238 -1.01474
C 11.92886 -0.39621 -1.62737
C 11.22954 -0.14731 -2.99066
C 11.89403 1.27070 -3.34643
C 12.19644 1.76072 -1.93182
C 13.20775 1.14751 -4.10028
C 9.67094 -0.03236 -2.85076
C 8.90015 -0.09830 -4.17109
H 7.59792 -0.75899 -4.18457
N 12.93984 3.13965 0.70634
C 12.60682 3.76348 -0.44310
C 12.62357 5.20276 -0.13919
C 13.15396 5.38496 1.23929
C 13.56391 4.02910 1.54535
C 12.09047 6.24020 -1.08414
C 13.28395 6.58379 2.12930
O 13.99244 6.55605 3.19705
C 12.63372 7.81815 1.66558
N 14.62078 1.30123 2.43893
C 14.96994 2.48199 2.97914
C 15.86065 2.28889 4.18319
C 15.84039 0.71855 4.48517
C 14.97483 0.24361 3.29747
C 17.30674 2.75743 4.02288
C 15.43119 0.28280 5.91882
C 13.97409 0.60534 6.16013
N 13.27935 -0.96290 1.16941
C 14.07046 -1.69132 2.08463
C 13.92997 -3.12097 1.73997
C 13.07835 -3.12348 0.62496
C 12.72998 -1.78825 0.28542
C 14.58378 -4.20266 2.39464
C 12.40339 -3.95141 -0.34852
O 12.25752 -5.16277 -0.50679
C 11.83656 -3.01568 -1.50156
C 10.40938 -3.41270 -1.76245
O 9.53831 -3.24937 -0.89000
O 10.26736 -3.71506 -3.06583
C 8.86594 -4.10442 -3.37606
H 12.39287 3.82285 -2.54759
H 14.84899 4.42435 3.16355
H 15.25545 -1.81860 3.70671
H 11.46491 -0.87193 -3.76092
H 11.18060 1.93001 -3.83397
H 13.53812 0.12171 -4.16907
H 13.92294 1.73879 -3.54357
H 13.12458 1.62138 -5.08256
H 9.41407 0.98666 -2.53393
H 9.29336 -0.77442 -2.17445
H 9.52488 -0.46344 -4.99530
H 8.63253 0.91872 -4.46784
H 11.91930 5.82330 -2.08429
H 12.88617 6.97869 -1.23023
H 11.20438 6.74742 -0.69652
H 13.03679 8.09581 0.69454
H 12.76111 8.53795 2.47646
H 11.56677 7.61724 1.51768
H 15.46811 2.81725 5.04333
H 16.83351 0.26506 4.35141
H 17.61141 3.50117 4.78322
H 17.42612 3.16157 3.02641
H 18.05357 1.96555 4.04203
H 16.00088 0.84519 6.66268
H 15.59867 -0.77112 6.11426
H 13.99937 1.66049 6.44843
H 13.57231 -0.01295 6.96033
H 13.39560 0.53099 5.23198
H 13.84452 -4.98232 2.52166
H 15.00485 -3.89366 3.34910
H 15.35924 -4.43527 1.65992
H 12.46812 -3.15818 -2.37928
H 8.90494 -5.09387 -3.84205
H 8.45365 -3.27724 -3.98395
H 8.20075 -4.29007 -2.54088

