%nproc=24
%mem=175gb
#p cam-b3lyp/Def2SVP td=(nstates=5)

TDDFT excited states in gaussian

0 1
Mg 13.14208 1.17656 1.00584
C 10.44949 1.44858 3.36275
C 15.18774 2.44405 3.42315
C 15.43578 1.37280 -1.17770
C 10.73795 1.02785 -1.51284
N 12.75187 1.82374 3.08458
C 11.70199 1.82338 3.89211
C 12.02681 2.17163 5.36953
C 13.38026 3.00178 5.12893
C 13.82746 2.36466 3.81487
C 13.14259 4.48280 4.88512
C 12.28446 0.89332 6.24220
C 12.30205 1.13861 7.75259
H 11.76505 0.10391 8.63208
N 15.10791 1.34481 1.21980
C 15.77018 1.86266 2.27550
C 17.19893 1.77646 1.93580
C 17.31885 1.31717 0.52535
C 15.92815 1.34774 0.11902
C 18.28973 2.03757 2.93351
C 18.49246 0.92859 -0.32191
O 18.38963 0.79028 -1.59200
C 19.78587 0.80602 0.36624
N 13.10619 1.41040 -1.05968
C 14.24462 1.41184 -1.77515
C 13.95905 1.31571 -3.25487
C 12.39470 1.00445 -3.37119
C 12.01266 1.06557 -1.87596
C 14.29296 2.55899 -4.07897
C 11.98594 -0.25205 -4.18776
C 12.43996 -1.50339 -3.47126
N 10.98757 1.04066 0.91824
C 10.18081 1.01692 -0.24049
C 8.77348 1.03471 0.20842
C 8.85987 1.09126 1.60764
C 10.22463 1.12795 2.00210
C 7.63003 1.04838 -0.63921
C 8.10681 1.13899 2.84025
O 6.91564 1.04822 3.13455
C 9.10133 1.50012 4.02638
C 8.84063 0.54449 5.15834
O 9.07617 -0.66960 5.02750
O 8.56440 1.24620 6.27265
C 8.30939 0.34229 7.42579
H 15.86794 3.04348 4.02887
H 16.18811 1.32914 -1.96864
H 9.92975 0.88464 -2.23323
H 11.29041 2.79559 5.86163
H 14.10719 2.80806 5.91341
H 12.09125 4.71286 4.79633
H 13.66005 4.71600 3.96376
H 13.63090 5.07609 5.66351
H 13.32002 0.56118 6.09373
H 11.57456 0.12361 6.00936
H 11.88798 2.11955 8.01573
H 13.34211 1.18911 8.08386
H 17.89945 2.51613 3.84018
H 18.95257 2.79017 2.49295
H 18.87339 1.14354 3.16310
H 20.03365 1.75259 0.84065
H 20.48349 0.43439 -0.38682
H 19.68604 0.06786 1.16983
H 14.51379 0.50087 -3.70366
H 11.85233 1.82241 -3.86779
H 14.99843 2.35725 -4.90704
H 14.69320 3.31227 -3.41345
H 13.43513 3.06815 -4.51496
H 12.48644 -0.25172 -5.15918
H 10.91933 -0.31729 -4.37505
H 13.48560 -1.59835 -3.77901
H 11.85444 -2.36251 -3.79240
H 12.42785 -1.36094 -2.38442
H 6.92114 0.34856 -0.21703
H 7.89012 0.78372 -1.66199
H 7.33314 2.09673 -0.54932
H 8.90876 2.53504 4.31174
H 7.32480 0.60417 7.82538
H 9.17663 0.46753 8.10104
H 8.17873 -0.71290 7.21616

