%nproc=24
%mem=175gb
#p cam-b3lyp/Def2SVP td=(nstates=5)

TDDFT excited states in gaussian

0 1
Mg 0.00000 0.00000 0.00000
C -0.21700 -2.21800 2.80100
C -1.25500 2.44200 2.02600
C -0.24500 1.85000 -2.56400
C 0.14600 -2.82400 -2.03700
N -0.61700 -0.00900 2.12600
C -0.59400 -0.90800 3.10500
C -0.93600 -0.30900 4.50200
C -1.77300 0.96400 4.03200
C -1.15500 1.16800 2.66000
C -3.26300 0.68500 3.86300
C 0.34500 0.11000 5.29900
C 0.12400 0.39700 6.78700
H 1.16800 0.03300 7.73300
N -0.18500 1.96100 -0.15200
C -0.70300 2.80000 0.77700
C -0.62000 4.15600 0.19300
C -0.18700 4.01500 -1.22500
C -0.21400 2.58300 -1.38000
C -0.88700 5.40600 0.97400
C 0.18100 5.01300 -2.27700
O 0.30300 4.69000 -3.50800
C 0.31000 6.41400 -1.83700
N -0.26500 -0.41300 -2.02900
C -0.27900 0.56900 -2.93700
C -0.19600 0.02400 -4.33200
C 0.12400 -1.53300 -4.18000
C 0.08600 -1.63200 -2.63500
C -1.45100 0.20500 -5.19700
C 1.37300 -2.07000 -4.92300
C 2.62600 -1.49000 -4.30600
N 0.15000 -2.14400 0.30300
C 0.17300 -3.13600 -0.68800
C 0.17300 -4.43800 0.00400
C 0.13300 -4.11100 1.35800
C 0.08300 -2.69500 1.50200
C 0.14900 -5.71500 -0.62300
C 0.09600 -4.62900 2.71600
O 0.20800 -5.74700 3.22100
C -0.25500 -3.42800 3.70100
C 0.71700 -3.48200 4.84800
O 1.93100 -3.25500 4.66900
O 0.03800 -3.55600 6.00300
C 0.94300 -3.58300 7.18300
H -1.85900 3.22000 2.49700
H -0.21800 2.45300 -3.47400
H 0.27600 -3.74700 -2.60500
H -1.55400 -0.94900 5.13200
H -1.58500 1.83100 4.66500
H -3.48400 -0.37700 3.96900
H -3.51100 1.02700 2.85800
H -3.85200 1.30100 4.54300
H 0.66900 1.09600 4.96600
H 1.13000 -0.63900 5.18900
H -0.84400 0.02600 7.12500
H 0.06200 1.47700 6.92100
H -1.34400 5.18600 1.93800
H -1.65100 5.96300 0.43200
H 0.00700 6.02000 1.08400
H -0.63500 6.74400 -1.40500
H 0.66500 6.97000 -2.70400
H 1.04800 6.46600 -1.03600
H 0.60800 0.50100 -4.89100
H -0.69200 -2.15600 -4.54700
H -1.26700 0.74000 -6.12900
H -2.20400 0.71400 -4.59600
H -1.96700 -0.72000 -5.45300
H 1.35600 -1.75900 -5.96700
H 1.45200 -3.15700 -4.90200
H 2.71400 -0.52200 -4.79800
H 3.48700 -2.12100 -4.52900
H 2.49500 -1.30300 -3.24000
H 0.86700 -6.33300 -0.08400
H 0.40400 -5.64200 -1.68000
H -0.89100 -5.99900 -0.46300
H -1.28300 -3.58100 4.02800
H 0.69800 -4.47800 7.75500
H 0.83300 -2.61900 7.68000
H 2.00000 -3.75400 6.97600
Mg 8.94033 0.80756 0.67064
C 11.71469 -1.44800 0.97796
C 11.15638 3.35932 1.13131
C 6.46867 2.78858 0.85468
C 6.84848 -1.88982 1.37349
N 11.12729 0.82652 1.00095
C 12.08456 -0.08817 1.03704
C 13.52526 0.48919 1.06156
C 13.19482 1.93398 1.67985
C 11.74631 2.07288 1.21596
C 13.21407 1.95710 3.19920
C 14.14637 0.60734 -0.37450
C 15.65358 0.87042 -0.40363
H 16.44551 0.26391 -1.47015
N 8.85686 2.77957 0.46383
C 9.85668 3.66237 0.66950
C 9.28200 4.99022 0.40356
C 7.81850 4.83262 0.18438
C 7.65086 3.43294 0.52036
C 10.11817 6.23242 0.29784
C 6.74504 5.78722 -0.24295
O 5.50186 5.49353 -0.13765
C 7.18978 7.11157 -0.70098
N 6.96517 0.54632 1.26465
C 6.08361 1.55943 1.19852
C 4.67158 1.06865 1.41231
C 4.76444 -0.52780 1.39541
C 6.29411 -0.69088 1.25790
C 3.99727 1.52529 2.70582
C 3.84792 -1.27546 0.38858
C 4.28895 -0.98169 -1.02725
N 9.18230 -1.32504 0.91865
C 8.17827 -2.26638 1.23470
C 8.84595 -3.57226 1.41157
C 10.20571 -3.29338 1.20717
C 10.37589 -1.90749 0.94289
C 8.20532 -4.79282 1.76647
C 11.53699 -3.85431 1.16536
O 12.00290 -4.99133 1.22739
C 12.58733 -2.66161 1.14001
C 13.59274 -2.95099 0.05930
O 13.24769 -2.97385 -1.13529
O 14.82829 -2.93744 0.59183
C 15.86109 -3.20851 -0.44338
H 11.72628 4.21617 1.49175
H 5.56909 3.40765 0.82333
H 6.25474 -2.79802 1.49728
H 14.21642 -0.04151 1.70533
H 13.81442 2.70645 1.23181
H 13.33101 0.96768 3.61575
H 12.26601 2.38417 3.49894
H 13.98250 2.64889 3.55597
H 13.78537 1.53049 -0.84591
H 13.91995 -0.26228 -0.96027
H 16.12207 0.69201 0.57189
H 15.81652 1.93497 -0.58853
H 11.13655 6.06466 0.66953
H 9.69256 6.96446 0.99271
H 10.11596 6.65730 -0.70822
H 7.75259 7.59782 0.09229
H 6.28752 7.61902 -1.04781
H 7.88095 6.97747 -1.54057
H 4.02379 1.39153 0.60657
H 4.48820 -0.96233 2.36737
H 3.04565 2.06336 2.53556
H 4.69341 2.14753 3.25240
H 3.78544 0.73233 3.42104
H 2.81934 -0.91647 0.47406
H 3.82758 -2.34975 0.53850
H 3.80596 -0.02384 -1.24245
H 3.94311 -1.75927 -1.70534
H 5.37246 -0.82305 -1.07705
H 8.62822 -5.56184 1.13381
H 7.12625 -4.72555 1.64458
H 8.49582 -4.86703 2.81784
H 13.04975 -2.61129 2.12652
H 16.44852 -4.06267 -0.09265
H 16.39860 -2.25232 -0.58669
H 15.52171 -3.56706 -1.40811

