%nproc=24
%mem=175gb
#p cam-b3lyp/Def2SVP td=(nstates=5)

TDDFT excited states in gaussian

0 1
Mg 31.52392 2.83985 2.40137
C 32.71262 5.13577 4.89031
C 30.93677 0.63132 4.93362
C 30.89618 0.63936 0.20337
C 33.23668 4.73738 0.03251
N 31.82595 2.98137 4.58792
C 32.22629 3.92522 5.42650
C 32.02317 3.58127 6.92650
C 32.01382 1.97987 6.80688
C 31.52860 1.84531 5.36496
C 33.39828 1.36097 6.90467
C 30.66077 4.12353 7.48491
C 30.53383 4.09528 9.00966
H 29.79954 5.17284 9.66704
N 30.54849 1.11792 2.54994
C 30.38854 0.36641 3.65941
C 29.61396 -0.81157 3.23921
C 29.47127 -0.77528 1.75832
C 30.33645 0.34212 1.43743
C 29.02474 -1.78838 4.21495
C 28.69583 -1.61617 0.78992
O 28.90562 -1.55526 -0.47305
C 27.74954 -2.58021 1.37015
N 32.16685 2.58130 0.44124
C 31.69999 1.56987 -0.31174
C 32.08729 1.74474 -1.76081
C 32.70796 3.21492 -1.86523
C 32.65142 3.61985 -0.37586
C 33.08983 0.72927 -2.30865
C 32.07949 4.17120 -2.91558
C 30.66514 4.52201 -2.51314
N 32.60158 4.71245 2.39230
C 33.26338 5.31043 1.29753
C 33.94778 6.51595 1.80816
C 33.65333 6.52308 3.17993
C 32.85942 5.39021 3.50523
C 34.75754 7.40047 1.04133
C 33.84244 7.22561 4.42868
O 34.35364 8.29631 4.75428
C 33.34729 6.29037 5.61467
C 32.47432 7.11350 6.52181
O 31.38666 7.56071 6.11734
O 32.96113 7.05417 7.77475
C 32.12268 7.84630 8.71356
H 30.92781 -0.21463 5.62149
H 30.61812 -0.03000 -0.61401
H 33.71017 5.43550 -0.66111
H 32.82714 3.90071 7.57871
H 31.29705 1.53669 7.49331
H 34.17481 2.11125 6.92015
H 33.50024 0.72890 6.03224
H 33.45230 0.69278 7.76892
H 29.85958 3.42291 7.21666
H 30.46917 5.11557 7.12468
H 31.50109 3.93392 9.50088
H 29.94070 3.22219 9.29237
H 29.43558 -1.64805 5.22238
H 29.36923 -2.78472 3.91748
H 27.93270 -1.77732 4.21458
H 28.28518 -3.26126 2.02721
H 27.22655 -3.02379 0.52068
H 27.03494 -2.03509 1.99688
H 31.21766 1.68395 -2.40359
H 33.77173 3.18927 -2.14375
H 32.71647 0.18155 -3.19447
H 33.34544 0.03972 -1.51509
H 34.06107 1.13943 -2.58006
H 32.01179 3.67503 -3.88686
H 32.64484 5.08583 -3.05989
H 30.08476 3.67244 -2.88526
H 30.35184 5.45107 -2.98508
H 30.55956 4.54081 -1.42220
H 34.48483 8.40549 1.33469
H 34.61568 7.24475 -0.02609
H 35.75234 7.09088 1.37269
H 34.23353 5.91594 6.12845
H 32.78639 8.56186 9.20867
H 31.61200 7.10483 9.35635
H 31.37958 8.50858 8.28505

