%nproc=24
%mem=175gb
#p cam-b3lyp/Def2SVP td=(nstates=5)

TDDFT excited states in gaussian

0 1
Mg 0.00000 0.00000 0.00000
C -0.21700 -2.21800 2.80100
C -1.25500 2.44200 2.02600
C -0.24500 1.85000 -2.56400
C 0.14600 -2.82400 -2.03700
N -0.61700 -0.00900 2.12600
C -0.59400 -0.90800 3.10500
C -0.93600 -0.30900 4.50200
C -1.77300 0.96400 4.03200
C -1.15500 1.16800 2.66000
C -3.26300 0.68500 3.86300
C 0.34500 0.11000 5.29900
C 0.12400 0.39700 6.78700
H 1.16800 0.03300 7.73300
N -0.18500 1.96100 -0.15200
C -0.70300 2.80000 0.77700
C -0.62000 4.15600 0.19300
C -0.18700 4.01500 -1.22500
C -0.21400 2.58300 -1.38000
C -0.88700 5.40600 0.97400
C 0.18100 5.01300 -2.27700
O 0.30300 4.69000 -3.50800
C 0.31000 6.41400 -1.83700
N -0.26500 -0.41300 -2.02900
C -0.27900 0.56900 -2.93700
C -0.19600 0.02400 -4.33200
C 0.12400 -1.53300 -4.18000
C 0.08600 -1.63200 -2.63500
C -1.45100 0.20500 -5.19700
C 1.37300 -2.07000 -4.92300
C 2.62600 -1.49000 -4.30600
N 0.15000 -2.14400 0.30300
C 0.17300 -3.13600 -0.68800
C 0.17300 -4.43800 0.00400
C 0.13300 -4.11100 1.35800
C 0.08300 -2.69500 1.50200
C 0.14900 -5.71500 -0.62300
C 0.09600 -4.62900 2.71600
O 0.20800 -5.74700 3.22100
C -0.25500 -3.42800 3.70100
C 0.71700 -3.48200 4.84800
O 1.93100 -3.25500 4.66900
O 0.03800 -3.55600 6.00300
C 0.94300 -3.58300 7.18300
H -1.85900 3.22000 2.49700
H -0.21800 2.45300 -3.47400
H 0.27600 -3.74700 -2.60500
H -1.55400 -0.94900 5.13200
H -1.58500 1.83100 4.66500
H -3.48400 -0.37700 3.96900
H -3.51100 1.02700 2.85800
H -3.85200 1.30100 4.54300
H 0.66900 1.09600 4.96600
H 1.13000 -0.63900 5.18900
H -0.84400 0.02600 7.12500
H 0.06200 1.47700 6.92100
H -1.34400 5.18600 1.93800
H -1.65100 5.96300 0.43200
H 0.00700 6.02000 1.08400
H -0.63500 6.74400 -1.40500
H 0.66500 6.97000 -2.70400
H 1.04800 6.46600 -1.03600
H 0.60800 0.50100 -4.89100
H -0.69200 -2.15600 -4.54700
H -1.26700 0.74000 -6.12900
H -2.20400 0.71400 -4.59600
H -1.96700 -0.72000 -5.45300
H 1.35600 -1.75900 -5.96700
H 1.45200 -3.15700 -4.90200
H 2.71400 -0.52200 -4.79800
H 3.48700 -2.12100 -4.52900
H 2.49500 -1.30300 -3.24000
H 0.86700 -6.33300 -0.08400
H 0.40400 -5.64200 -1.68000
H -0.89100 -5.99900 -0.46300
H -1.28300 -3.58100 4.02800
H 0.69800 -4.47800 7.75500
H 0.83300 -2.61900 7.68000
H 2.00000 -3.75400 6.97600
Mg 7.87319 0.71222 0.59618
C 6.98306 -2.10262 -1.44426
C 7.28077 2.68215 -2.12467
C 9.07895 3.15351 2.22519
C 9.46184 -1.52449 2.74537
N 7.21978 0.23462 -1.46227
C 6.85201 -0.86347 -2.10515
C 6.23796 -0.61205 -3.50846
C 6.91336 0.81233 -3.81480
C 7.12281 1.29682 -2.38159
C 8.27268 0.70211 -4.48519
C 4.67287 -0.50846 -3.46623
C 3.98702 -0.57258 -4.83270
H 2.69296 -1.24203 -4.93124
N 7.68919 2.66665 0.30481
C 7.42459 3.29434 -0.86021
C 7.41196 4.73205 -0.54878
C 7.85340 4.91048 0.86118
C 8.25297 3.55583 1.18574
C 6.93189 5.77088 -1.52027
C 7.91869 6.10539 1.76348
O 8.55889 6.07677 2.87350
C 7.29009 7.33776 1.26587
N 9.27104 0.83047 2.13058
C 9.57715 2.01067 2.69746
C 10.39183 1.81721 3.95414
C 10.36383 0.24517 4.24654
C 9.57799 -0.22929 3.00448
C 11.84176 2.29642 3.88734
C 9.86850 -0.20101 5.64948
C 8.39686 0.11031 5.80032
N 8.02817 -1.43591 0.76816
C 8.76540 -2.16381 1.72771
C 8.65702 -3.59252 1.36789
C 7.87717 -3.59487 0.20156
C 7.54130 -2.26024 -0.15265
C 9.27611 -4.67323 2.05704
C 7.27060 -4.42215 -0.81647
O 7.14360 -5.63362 -0.98954
C 6.77066 -3.48415 -1.99825
C 5.36556 -3.88947 -2.35027
O 4.44027 -3.73674 -1.53350
O 5.30784 -4.18582 -3.66146
C 3.93149 -4.58304 -4.06106
H 7.34283 3.36350 -2.97367
H 9.43102 3.95115 2.88344
H 9.84704 -2.29170 3.42041
H 6.52640 -1.33093 -4.26595
H 6.22728 1.46937 -4.34297
H 8.61402 -0.32104 -4.53811
H 8.94726 1.29526 -3.88173
H 8.24800 1.18065 -5.46841
H 4.38935 0.50707 -3.16118
H 4.25885 -1.25668 -2.81864
H 4.66488 -0.92905 -5.61780
H 3.73133 0.44416 -5.14069
H 6.82686 5.35818 -2.53124
H 7.72992 6.51554 -1.61244
H 6.01961 6.26998 -1.18662
H 7.75137 7.62334 0.32346
H 7.36117 8.05407 2.08668
H 6.23600 7.13040 1.05022
H 9.94228 2.33828 4.79050
H 11.36660 -0.20083 4.17324
H 12.09276 3.03814 4.66896
H 12.02061 2.70669 2.90234
H 12.59154 1.50955 3.94950
H 10.38632 0.36126 6.43042
H 10.03088 -1.25480 5.84989
H 8.39646 1.16405 6.09481
H 7.95002 -0.51496 6.57064
H 7.87835 0.03699 4.83729
H 8.53591 -5.45856 2.13351
H 9.63419 -4.36648 3.03758
H 10.09783 -4.89662 1.37137
H 7.45711 -3.61766 -2.83522
H 4.00674 -5.56969 -4.52854
H 3.55232 -3.75544 -4.68960
H 3.21649 -4.77766 -3.27026

