%nproc=24
%mem=175gb
#p cam-b3lyp/Def2SVP td=(nstates=5)

TDDFT excited states in gaussian

0 1
Mg 0.00000 0.00000 0.00000
C -0.21700 -2.21800 2.80100
C -1.25500 2.44200 2.02600
C -0.24500 1.85000 -2.56400
C 0.14600 -2.82400 -2.03700
N -0.61700 -0.00900 2.12600
C -0.59400 -0.90800 3.10500
C -0.93600 -0.30900 4.50200
C -1.77300 0.96400 4.03200
C -1.15500 1.16800 2.66000
C -3.26300 0.68500 3.86300
C 0.34500 0.11000 5.29900
C 0.12400 0.39700 6.78700
H 1.16800 0.03300 7.73300
N -0.18500 1.96100 -0.15200
C -0.70300 2.80000 0.77700
C -0.62000 4.15600 0.19300
C -0.18700 4.01500 -1.22500
C -0.21400 2.58300 -1.38000
C -0.88700 5.40600 0.97400
C 0.18100 5.01300 -2.27700
O 0.30300 4.69000 -3.50800
C 0.31000 6.41400 -1.83700
N -0.26500 -0.41300 -2.02900
C -0.27900 0.56900 -2.93700
C -0.19600 0.02400 -4.33200
C 0.12400 -1.53300 -4.18000
C 0.08600 -1.63200 -2.63500
C -1.45100 0.20500 -5.19700
C 1.37300 -2.07000 -4.92300
C 2.62600 -1.49000 -4.30600
N 0.15000 -2.14400 0.30300
C 0.17300 -3.13600 -0.68800
C 0.17300 -4.43800 0.00400
C 0.13300 -4.11100 1.35800
C 0.08300 -2.69500 1.50200
C 0.14900 -5.71500 -0.62300
C 0.09600 -4.62900 2.71600
O 0.20800 -5.74700 3.22100
C -0.25500 -3.42800 3.70100
C 0.71700 -3.48200 4.84800
O 1.93100 -3.25500 4.66900
O 0.03800 -3.55600 6.00300
C 0.94300 -3.58300 7.18300
H -1.85900 3.22000 2.49700
H -0.21800 2.45300 -3.47400
H 0.27600 -3.74700 -2.60500
H -1.55400 -0.94900 5.13200
H -1.58500 1.83100 4.66500
H -3.48400 -0.37700 3.96900
H -3.51100 1.02700 2.85800
H -3.85200 1.30100 4.54300
H 0.66900 1.09600 4.96600
H 1.13000 -0.63900 5.18900
H -0.84400 0.02600 7.12500
H 0.06200 1.47700 6.92100
H -1.34400 5.18600 1.93800
H -1.65100 5.96300 0.43200
H 0.00700 6.02000 1.08400
H -0.63500 6.74400 -1.40500
H 0.66500 6.97000 -2.70400
H 1.04800 6.46600 -1.03600
H 0.60800 0.50100 -4.89100
H -0.69200 -2.15600 -4.54700
H -1.26700 0.74000 -6.12900
H -2.20400 0.71400 -4.59600
H -1.96700 -0.72000 -5.45300
H 1.35600 -1.75900 -5.96700
H 1.45200 -3.15700 -4.90200
H 2.71400 -0.52200 -4.79800
H 3.48700 -2.12100 -4.52900
H 2.49500 -1.30300 -3.24000
H 0.86700 -6.33300 -0.08400
H 0.40400 -5.64200 -1.68000
H -0.89100 -5.99900 -0.46300
H -1.28300 -3.58100 4.02800
H 0.69800 -4.47800 7.75500
H 0.83300 -2.61900 7.68000
H 2.00000 -3.75400 6.97600
Mg 10.51832 0.94043 0.80320
C 10.73261 -1.84893 -1.44460
C 9.65006 -1.28200 3.24072
C 9.88358 3.41055 2.69081
C 10.27646 3.00062 -1.99731
N 10.25895 -1.25601 0.77871
C 10.42748 -2.21659 -0.11752
C 10.33860 -3.65565 0.45760
C 9.44670 -3.34125 1.75550
C 9.83019 -1.87807 1.96700
C 7.95206 -3.40964 1.48960
C 11.74465 -4.22957 0.85213
C 11.77029 -5.73428 1.12949
H 12.95694 -6.49299 0.74390
N 10.34345 1.03626 2.77774
C 10.00492 0.03285 3.61431
C 9.99528 0.61967 4.96328
C 10.19459 2.08905 4.83705
C 10.12598 2.24167 3.39757
C 9.88882 -0.20904 6.21041
C 10.39873 3.17854 5.84577
O 10.31244 4.41681 5.52625
C 10.61010 2.75270 7.23698
N 9.92342 2.89455 0.41606
C 9.76800 3.78072 1.41529
C 9.60747 5.18365 0.88015
C 9.93069 5.08678 -0.68310
C 10.14445 3.56191 -0.80329
C 8.23027 5.81702 1.07652
C 11.03222 6.03327 -1.23397
C 12.37939 5.63919 -0.67251
N 10.68827 0.68439 -1.33540
C 10.52586 1.67494 -2.32864
C 10.62163 0.99811 -3.63828
C 10.81164 -0.35350 -3.31341
C 10.81259 -0.51102 -1.90108
C 10.48558 1.62338 -4.90975
C 11.00098 -1.68434 -3.84417
O 11.17100 -2.15530 -4.96801
C 10.83177 -2.72986 -2.65899
C 11.97869 -3.70056 -2.72863
O 13.14442 -3.31706 -2.52712
O 11.49218 -4.95267 -2.80542
C 12.59182 -5.95217 -2.86549
H 9.15117 -1.86080 4.01853
H 9.76843 4.31246 3.29643
H 10.30924 3.58741 -2.91779
H 9.82948 -4.36883 -0.17954
H 9.75873 -3.94378 2.60459
H 7.73523 -3.54287 0.44013
H 7.54706 -2.47056 1.84336
H 7.49439 -4.18722 2.10785
H 12.02029 -3.85082 1.84476
H 12.47780 -3.98681 0.10769
H 10.86166 -6.23465 0.77315
H 11.75427 -5.88807 2.21121
H 9.58784 -1.23940 5.98422
H 9.05441 0.19595 6.79317
H 10.79509 -0.17301 6.81871
H 9.75680 2.16590 7.56864
H 10.82568 3.66719 7.79297
H 11.48105 2.08871 7.27113
H 10.31642 5.85814 1.34444
H 9.05100 5.33013 -1.29690
H 8.26522 6.77520 1.62856
H 7.59732 5.10534 1.58977
H 7.67272 6.00328 0.16021
H 10.84790 7.05957 -0.90705
H 11.08888 6.04564 -2.31731
H 12.39322 6.13167 0.30441
H 13.18188 6.00457 -1.31011
H 12.43193 4.55832 -0.49755
H 11.26590 1.21898 -5.54067
H 10.55866 2.70602 -4.83026
H 9.47714 1.29876 -5.17983
H 9.86865 -3.22385 -2.79293
H 12.42855 -6.55312 -3.76542
H 12.56732 -6.48199 -1.89469
H 13.59606 -5.58275 -3.03718

