%nproc=24
%mem=175gb
#p cam-b3lyp/Def2SVP td=(nstates=5)

TDDFT excited states in gaussian

0 1
Mg 0.00000 0.00000 0.00000
C -0.21700 -2.21800 2.80100
C -1.25500 2.44200 2.02600
C -0.24500 1.85000 -2.56400
C 0.14600 -2.82400 -2.03700
N -0.61700 -0.00900 2.12600
C -0.59400 -0.90800 3.10500
C -0.93600 -0.30900 4.50200
C -1.77300 0.96400 4.03200
C -1.15500 1.16800 2.66000
C -3.26300 0.68500 3.86300
C 0.34500 0.11000 5.29900
C 0.12400 0.39700 6.78700
H 1.16800 0.03300 7.73300
N -0.18500 1.96100 -0.15200
C -0.70300 2.80000 0.77700
C -0.62000 4.15600 0.19300
C -0.18700 4.01500 -1.22500
C -0.21400 2.58300 -1.38000
C -0.88700 5.40600 0.97400
C 0.18100 5.01300 -2.27700
O 0.30300 4.69000 -3.50800
C 0.31000 6.41400 -1.83700
N -0.26500 -0.41300 -2.02900
C -0.27900 0.56900 -2.93700
C -0.19600 0.02400 -4.33200
C 0.12400 -1.53300 -4.18000
C 0.08600 -1.63200 -2.63500
C -1.45100 0.20500 -5.19700
C 1.37300 -2.07000 -4.92300
C 2.62600 -1.49000 -4.30600
N 0.15000 -2.14400 0.30300
C 0.17300 -3.13600 -0.68800
C 0.17300 -4.43800 0.00400
C 0.13300 -4.11100 1.35800
C 0.08300 -2.69500 1.50200
C 0.14900 -5.71500 -0.62300
C 0.09600 -4.62900 2.71600
O 0.20800 -5.74700 3.22100
C -0.25500 -3.42800 3.70100
C 0.71700 -3.48200 4.84800
O 1.93100 -3.25500 4.66900
O 0.03800 -3.55600 6.00300
C 0.94300 -3.58300 7.18300
H -1.85900 3.22000 2.49700
H -0.21800 2.45300 -3.47400
H 0.27600 -3.74700 -2.60500
H -1.55400 -0.94900 5.13200
H -1.58500 1.83100 4.66500
H -3.48400 -0.37700 3.96900
H -3.51100 1.02700 2.85800
H -3.85200 1.30100 4.54300
H 0.66900 1.09600 4.96600
H 1.13000 -0.63900 5.18900
H -0.84400 0.02600 7.12500
H 0.06200 1.47700 6.92100
H -1.34400 5.18600 1.93800
H -1.65100 5.96300 0.43200
H 0.00700 6.02000 1.08400
H -0.63500 6.74400 -1.40500
H 0.66500 6.97000 -2.70400
H 1.04800 6.46600 -1.03600
H 0.60800 0.50100 -4.89100
H -0.69200 -2.15600 -4.54700
H -1.26700 0.74000 -6.12900
H -2.20400 0.71400 -4.59600
H -1.96700 -0.72000 -5.45300
H 1.35600 -1.75900 -5.96700
H 1.45200 -3.15700 -4.90200
H 2.71400 -0.52200 -4.79800
H 3.48700 -2.12100 -4.52900
H 2.49500 -1.30300 -3.24000
H 0.86700 -6.33300 -0.08400
H 0.40400 -5.64200 -1.68000
H -0.89100 -5.99900 -0.46300
H -1.28300 -3.58100 4.02800
H 0.69800 -4.47800 7.75500
H 0.83300 -2.61900 7.68000
H 2.00000 -3.75400 6.97600
Mg 7.89057 0.71319 0.59213
C 10.60769 -1.49329 1.38447
C 9.92382 3.29898 1.49443
C 5.38477 2.64258 0.33550
C 5.76457 -2.03587 0.85394
N 9.97597 0.76873 1.32716
C 10.92963 -0.12778 1.53004
C 12.32703 0.47682 1.83216
C 11.85459 1.90405 2.39667
C 10.51590 2.02292 1.67111
C 11.58837 1.90131 3.89282
C 13.20337 0.63174 0.53986
C 14.68314 0.92436 0.79758
H 15.67411 0.35179 -0.10939
N 7.80350 2.68649 0.39964
C 8.72723 3.58478 0.80102
C 8.18317 4.90566 0.44970
C 6.79050 4.72360 -0.04228
C 6.59405 3.31535 0.23758
C 8.99651 6.16544 0.51933
C 5.79514 5.66451 -0.65068
O 4.56108 5.34507 -0.78446
C 6.28825 7.00492 -0.99942
N 5.84541 0.40359 0.80142
C 4.96954 1.40046 0.58457
C 3.55372 0.87886 0.52303
C 3.68356 -0.71497 0.50257
C 5.21515 -0.84604 0.65238
C 2.63906 1.29997 1.67301
C 2.98872 -1.46271 -0.66823
C 3.68052 -1.13608 -1.97211
N 8.12915 -1.41830 0.85267
C 7.10485 -2.38419 0.96213
C 7.75645 -3.67978 1.24371
C 9.12388 -3.37117 1.30183
C 9.30970 -1.97790 1.09269
C 7.08797 -4.91844 1.45580
C 10.45156 -3.90546 1.50310
O 10.92276 -5.03416 1.63629
C 11.46128 -2.69241 1.69119
C 12.65751 -2.94360 0.81458
O 12.54294 -2.95249 -0.42373
O 13.77083 -2.91536 1.56963
C 14.98503 -3.14849 0.74308
H 10.39692 4.16034 1.96680
H 4.49345 3.24459 0.14417
H 5.17850 -2.95738 0.85199
H 12.89699 -0.05145 2.58705
H 12.52983 2.69598 2.08320
H 11.64718 0.90729 4.31068
H 10.59170 2.30473 4.01500
H 12.26080 2.60157 4.39663
H 12.91664 1.55573 0.02144
H 13.11008 -0.23185 -0.08953
H 14.96444 0.73823 1.84121
H 14.85412 1.99491 0.66075
H 9.93071 6.01100 1.07325
H 8.43211 6.87701 1.13170
H 9.17336 6.60750 -0.46351
H 6.68156 7.48819 -0.10823
H 5.45588 7.50075 -1.50260
H 7.12727 6.89872 -1.69612
H 3.06132 1.20302 -0.38558
H 3.23987 -1.17147 1.39955
H 1.72446 1.82240 1.33440
H 3.20648 1.92603 2.34875
H 2.31469 0.49084 2.32514
H 1.95462 -1.12521 -0.77250
H 2.96454 -2.53963 -0.53913
H 3.22522 -0.18416 -2.26133
H 3.48519 -1.90837 -2.71336
H 4.75039 -0.95568 -1.81559
H 7.63888 -5.66810 0.90353
H 6.04961 -4.86995 1.13450
H 7.17795 -5.00517 2.54191
H 11.72948 -2.65020 2.74754
H 15.51520 -3.99707 1.18639
H 15.51848 -2.17976 0.71595
H 14.84043 -3.49683 -0.27289

