%nproc=24
%mem=175gb
#p cam-b3lyp/Def2SVP td=(nstates=5)

TDDFT excited states in gaussian

0 1
Mg 0.00000 0.00000 0.00000
C -0.21700 -2.21800 2.80100
C -1.25500 2.44200 2.02600
C -0.24500 1.85000 -2.56400
C 0.14600 -2.82400 -2.03700
N -0.61700 -0.00900 2.12600
C -0.59400 -0.90800 3.10500
C -0.93600 -0.30900 4.50200
C -1.77300 0.96400 4.03200
C -1.15500 1.16800 2.66000
C -3.26300 0.68500 3.86300
C 0.34500 0.11000 5.29900
C 0.12400 0.39700 6.78700
H 1.16800 0.03300 7.73300
N -0.18500 1.96100 -0.15200
C -0.70300 2.80000 0.77700
C -0.62000 4.15600 0.19300
C -0.18700 4.01500 -1.22500
C -0.21400 2.58300 -1.38000
C -0.88700 5.40600 0.97400
C 0.18100 5.01300 -2.27700
O 0.30300 4.69000 -3.50800
C 0.31000 6.41400 -1.83700
N -0.26500 -0.41300 -2.02900
C -0.27900 0.56900 -2.93700
C -0.19600 0.02400 -4.33200
C 0.12400 -1.53300 -4.18000
C 0.08600 -1.63200 -2.63500
C -1.45100 0.20500 -5.19700
C 1.37300 -2.07000 -4.92300
C 2.62600 -1.49000 -4.30600
N 0.15000 -2.14400 0.30300
C 0.17300 -3.13600 -0.68800
C 0.17300 -4.43800 0.00400
C 0.13300 -4.11100 1.35800
C 0.08300 -2.69500 1.50200
C 0.14900 -5.71500 -0.62300
C 0.09600 -4.62900 2.71600
O 0.20800 -5.74700 3.22100
C -0.25500 -3.42800 3.70100
C 0.71700 -3.48200 4.84800
O 1.93100 -3.25500 4.66900
O 0.03800 -3.55600 6.00300
C 0.94300 -3.58300 7.18300
H -1.85900 3.22000 2.49700
H -0.21800 2.45300 -3.47400
H 0.27600 -3.74700 -2.60500
H -1.55400 -0.94900 5.13200
H -1.58500 1.83100 4.66500
H -3.48400 -0.37700 3.96900
H -3.51100 1.02700 2.85800
H -3.85200 1.30100 4.54300
H 0.66900 1.09600 4.96600
H 1.13000 -0.63900 5.18900
H -0.84400 0.02600 7.12500
H 0.06200 1.47700 6.92100
H -1.34400 5.18600 1.93800
H -1.65100 5.96300 0.43200
H 0.00700 6.02000 1.08400
H -0.63500 6.74400 -1.40500
H 0.66500 6.97000 -2.70400
H 1.04800 6.46600 -1.03600
H 0.60800 0.50100 -4.89100
H -0.69200 -2.15600 -4.54700
H -1.26700 0.74000 -6.12900
H -2.20400 0.71400 -4.59600
H -1.96700 -0.72000 -5.45300
H 1.35600 -1.75900 -5.96700
H 1.45200 -3.15700 -4.90200
H 2.71400 -0.52200 -4.79800
H 3.48700 -2.12100 -4.52900
H 2.49500 -1.30300 -3.24000
H 0.86700 -6.33300 -0.08400
H 0.40400 -5.64200 -1.68000
H -0.89100 -5.99900 -0.46300
H -1.28300 -3.58100 4.02800
H 0.69800 -4.47800 7.75500
H 0.83300 -2.61900 7.68000
H 2.00000 -3.75400 6.97600
Mg 7.88011 0.71803 0.60465
C 10.06729 0.40138 3.43220
C 5.26944 0.42066 2.77963
C 5.94179 0.54172 -1.90120
C 10.58762 -0.14895 -1.41115
N 7.80550 0.45085 2.79903
C 8.69925 0.40611 3.77553
C 8.09346 0.44508 5.20418
C 6.63195 -0.12527 4.86128
C 6.53978 0.30245 3.39799
C 6.54811 -1.64139 4.92192
C 8.02038 1.90170 5.78292
C 7.72941 1.98383 7.28303
H 8.36228 3.04780 8.05756
N 5.91987 0.99946 0.47499
C 5.01031 0.85695 1.46174
C 3.70551 1.15830 0.85278
C 3.90013 1.32956 -0.61266
C 5.28835 0.93440 -0.74216
C 2.45245 1.33625 1.66001
C 2.98432 1.76334 -1.71688
O 3.29772 1.61142 -2.95039
C 1.67081 2.28531 -1.31225
N 8.15592 0.05848 -1.34760
C 7.16357 0.13922 -2.25129
C 7.67284 -0.13357 -3.64651
C 9.26660 -0.17658 -3.52136
C 9.40522 -0.00226 -1.99303
C 7.17838 -1.42680 -4.29415
C 10.07135 0.77380 -4.44971
C 9.82554 2.21198 -4.05400
N 9.99607 0.39365 0.89715
C 10.94345 0.01263 -0.07824
C 12.22805 -0.19625 0.62077
C 11.93111 0.05739 1.96836
C 10.55376 0.38045 2.10266
C 13.44577 -0.61671 0.01539
C 12.46726 0.11491 3.30923
O 13.59164 0.02163 3.79994
C 11.25630 0.21673 4.33374
C 11.56878 1.31335 5.31471
O 11.64577 2.49586 4.93741
O 11.51004 0.81699 6.56393
C 11.80188 1.86966 7.57316
H 4.38803 0.11036 3.34152
H 5.34208 0.57177 -2.81384
H 11.50156 -0.32500 -1.98246
H 8.58462 -0.19912 5.92359
H 5.86598 0.37007 5.45229
H 7.51775 -2.09289 5.07061
H 6.12800 -1.95093 3.97391
H 5.82788 -1.94886 5.68551
H 7.12389 2.39847 5.39016
H 8.91683 2.44630 5.55836
H 7.85977 1.01574 7.78180
H 6.67007 2.21482 7.41890
H 2.58548 0.98730 2.69148
H 1.70181 0.65880 1.23875
H 2.06801 2.35771 1.62134
H 1.14257 1.52798 -0.73791
H 1.19518 2.62604 -2.23397
H 1.82468 3.13826 -0.64187
H 7.39489 0.66551 -4.32276
H 9.66746 -1.17226 -3.76171
H 6.66612 -1.26265 -5.26096
H 6.52150 -1.92863 -3.59615
H 7.94627 -2.17825 -4.46984
H 9.72932 0.67332 -5.48270
H 11.13903 0.58141 -4.44382
H 8.88656 2.45076 -4.56233
H 10.63602 2.84902 -4.40235
H 9.64796 2.29866 -2.97576
H 14.23094 -0.00291 0.43641
H 13.40440 -0.52292 -1.06779
H 13.47250 -1.66151 0.33622
H 11.15784 -0.75355 4.82203
H 12.62985 1.50254 8.18746
H 10.84187 2.06549 8.08674
H 12.20501 2.80960 7.21476

