%nproc=24
%mem=175gb
#p cam-b3lyp/Def2SVP td=(nstates=5)

TDDFT excited states in gaussian

0 1
Mg 0.00000 0.00000 0.00000
C -0.21700 -2.21800 2.80100
C -1.25500 2.44200 2.02600
C -0.24500 1.85000 -2.56400
C 0.14600 -2.82400 -2.03700
N -0.61700 -0.00900 2.12600
C -0.59400 -0.90800 3.10500
C -0.93600 -0.30900 4.50200
C -1.77300 0.96400 4.03200
C -1.15500 1.16800 2.66000
C -3.26300 0.68500 3.86300
C 0.34500 0.11000 5.29900
C 0.12400 0.39700 6.78700
H 1.16800 0.03300 7.73300
N -0.18500 1.96100 -0.15200
C -0.70300 2.80000 0.77700
C -0.62000 4.15600 0.19300
C -0.18700 4.01500 -1.22500
C -0.21400 2.58300 -1.38000
C -0.88700 5.40600 0.97400
C 0.18100 5.01300 -2.27700
O 0.30300 4.69000 -3.50800
C 0.31000 6.41400 -1.83700
N -0.26500 -0.41300 -2.02900
C -0.27900 0.56900 -2.93700
C -0.19600 0.02400 -4.33200
C 0.12400 -1.53300 -4.18000
C 0.08600 -1.63200 -2.63500
C -1.45100 0.20500 -5.19700
C 1.37300 -2.07000 -4.92300
C 2.62600 -1.49000 -4.30600
N 0.15000 -2.14400 0.30300
C 0.17300 -3.13600 -0.68800
C 0.17300 -4.43800 0.00400
C 0.13300 -4.11100 1.35800
C 0.08300 -2.69500 1.50200
C 0.14900 -5.71500 -0.62300
C 0.09600 -4.62900 2.71600
O 0.20800 -5.74700 3.22100
C -0.25500 -3.42800 3.70100
C 0.71700 -3.48200 4.84800
O 1.93100 -3.25500 4.66900
O 0.03800 -3.55600 6.00300
C 0.94300 -3.58300 7.18300
H -1.85900 3.22000 2.49700
H -0.21800 2.45300 -3.47400
H 0.27600 -3.74700 -2.60500
H -1.55400 -0.94900 5.13200
H -1.58500 1.83100 4.66500
H -3.48400 -0.37700 3.96900
H -3.51100 1.02700 2.85800
H -3.85200 1.30100 4.54300
H 0.66900 1.09600 4.96600
H 1.13000 -0.63900 5.18900
H -0.84400 0.02600 7.12500
H 0.06200 1.47700 6.92100
H -1.34400 5.18600 1.93800
H -1.65100 5.96300 0.43200
H 0.00700 6.02000 1.08400
H -0.63500 6.74400 -1.40500
H 0.66500 6.97000 -2.70400
H 1.04800 6.46600 -1.03600
H 0.60800 0.50100 -4.89100
H -0.69200 -2.15600 -4.54700
H -1.26700 0.74000 -6.12900
H -2.20400 0.71400 -4.59600
H -1.96700 -0.72000 -5.45300
H 1.35600 -1.75900 -5.96700
H 1.45200 -3.15700 -4.90200
H 2.71400 -0.52200 -4.79800
H 3.48700 -2.12100 -4.52900
H 2.49500 -1.30300 -3.24000
H 0.86700 -6.33300 -0.08400
H 0.40400 -5.64200 -1.68000
H -0.89100 -5.99900 -0.46300
H -1.28300 -3.58100 4.02800
H 0.69800 -4.47800 7.75500
H 0.83300 -2.61900 7.68000
H 2.00000 -3.75400 6.97600
Mg 10.51646 0.94942 0.79002
C 13.28924 -1.32432 0.93452
C 12.77440 3.48755 1.09694
C 8.07479 2.94888 1.11835
C 8.45462 -1.72951 1.63729
N 12.71994 0.95442 0.98220
C 13.67134 0.03311 0.96298
C 15.11462 0.60031 0.89387
C 14.83354 2.05043 1.52396
C 13.35971 2.19738 1.15124
C 14.94840 2.08088 3.03896
C 15.64504 0.70698 -0.57898
C 17.14920 0.95916 -0.70413
H 17.86839 0.34180 -1.81503
N 10.43358 2.92093 0.57832
C 11.45033 3.79759 0.71606
C 10.86912 5.12817 0.47965
C 9.39370 4.97993 0.35367
C 9.23799 3.58315 0.70700
C 11.70542 6.36386 0.31497
C 8.30202 5.94005 -0.01048
O 7.06595 5.65575 0.17426
C 8.72609 7.25893 -0.50261
N 8.58081 0.70517 1.50831
C 7.70375 1.72420 1.49228
C 6.30464 1.24456 1.79695
C 6.38539 -0.35258 1.78279
C 7.90225 -0.52723 1.55034
C 5.71608 1.71233 3.12781
C 5.40234 -1.09862 0.83954
C 5.75550 -0.81496 -0.60276
N 10.75903 -1.18361 1.03374
C 9.77046 -2.11620 1.41726
C 10.43904 -3.42593 1.55882
C 11.78513 -3.15775 1.26792
C 11.94779 -1.77442 0.98608
C 9.81370 -4.64013 1.95979
C 13.10730 -3.72835 1.14558
O 13.56845 -4.86835 1.18430
C 14.16207 -2.54331 1.04792
C 15.09557 -2.84515 -0.09225
O 14.67598 -2.87141 -1.26266
O 16.36221 -2.83778 0.36155
C 17.32604 -3.12128 -0.73503
H 13.37164 4.34208 1.41628
H 7.17925 3.57418 1.14027
H 7.86367 -2.63284 1.80298
H 15.84125 0.06786 1.49578
H 15.42900 2.81626 1.03376
H 15.08455 1.09270 3.45262
H 14.02398 2.51615 3.39537
H 15.74242 2.76891 3.34305
H 15.26141 1.63035 -1.03171
H 15.37634 -0.16387 -1.14471
H 17.67685 0.78222 0.24097
H 17.30743 2.02161 -0.90459
H 12.74398 6.19066 0.62286
H 11.32932 7.10231 1.03128
H 11.64288 6.78379 -0.69121
H 9.34094 7.74505 0.25112
H 7.80729 7.77109 -0.79480
H 9.36220 7.11579 -1.38323
H 5.60970 1.56809 1.03178
H 6.16783 -0.78035 2.77250
H 4.75933 2.25632 3.01479
H 6.44941 2.33227 3.62624
H 5.54423 0.92442 3.85915
H 4.38364 -0.73190 0.98753
H 5.38416 -2.17199 0.99617
H 5.26647 0.14525 -0.79231
H 5.36244 -1.59338 -1.25361
H 6.83480 -0.66429 -0.72136
H 10.19076 -5.41524 1.30593
H 8.72958 -4.56578 1.90556
H 10.16918 -4.71126 2.99121
H 14.68590 -2.49144 2.00316
H 17.92853 -3.97788 -0.41733
H 17.85997 -2.16966 -0.91693
H 16.92427 -3.48214 -1.67461

