%nproc=24
%mem=175gb
#p cam-b3lyp/Def2SVP td=(nstates=5)

TDDFT excited states in gaussian

0 1
Mg 15.76849 1.42210 1.18766
C 18.31750 -0.97446 0.38882
C 18.06796 3.85858 0.54690
C 13.69181 3.53986 2.31455
C 14.07192 -1.13843 2.83418
N 17.88622 1.32880 0.55615
C 18.73051 0.36401 0.22346
C 20.06549 0.86173 -0.39271
C 20.08766 2.33703 0.24123
C 18.58640 2.54409 0.43104
C 20.75419 2.39581 1.60565
C 20.01867 0.91080 -1.96032
C 21.37848 1.08984 -2.63902
H 21.61510 0.41510 -3.91229
N 15.68258 3.39014 0.94680
C 16.70852 4.22136 0.66791
C 16.12815 5.57197 0.61151
C 14.70606 5.48979 1.04235
C 14.64276 4.10998 1.48076
C 16.88753 6.76341 0.10434
C 13.59143 6.49134 1.06890
O 12.50149 6.26907 1.70565
C 13.85007 7.77778 0.40581
N 14.22695 1.28427 2.57582
C 13.44213 2.34241 2.84473
C 12.23814 1.93530 3.66024
C 12.25190 0.33622 3.67783
C 13.56895 0.08603 2.91092
C 12.19872 2.45947 5.09554
C 10.96475 -0.38406 3.19088
C 10.77077 -0.14932 1.71012
N 16.00888 -0.71396 1.40568
C 15.19940 -1.59076 2.16070
C 15.82668 -2.92671 2.09606
C 16.97909 -2.72802 1.32085
C 17.07474 -1.36038 0.94681
C 15.35113 -4.10126 2.74445
C 18.14204 -3.36213 0.74278
O 18.54466 -4.52121 0.65240
C 19.12728 -2.22993 0.21951
C 19.56324 -2.60019 -1.17166
O 18.74091 -2.63293 -2.10403
O 20.90738 -2.64170 -1.21582
C 21.38822 -2.99409 -2.57833
H 18.77045 4.69128 0.59179
H 12.89001 4.20650 2.64041
H 13.55245 -2.00936 3.23953
H 20.94373 0.30957 -0.08033
H 20.48681 3.06321 -0.46212
H 20.99856 1.41182 1.97738
H 20.04227 2.88147 2.26014
H 21.62799 3.05274 1.57034
H 19.52776 1.84072 -2.27495
H 19.52990 0.04102 -2.35431
H 22.21095 0.90960 -1.94805
H 21.48878 2.13905 -2.92365
H 17.95967 6.54896 0.01526
H 16.82829 7.53433 0.88025
H 16.47306 7.16330 -0.82354
H 14.71621 8.25140 0.86182
H 12.90685 8.32552 0.45264
H 14.11110 7.58562 -0.64087
H 11.32178 2.27372 3.19240
H 12.39985 -0.05883 4.69365
H 11.28745 3.04476 5.32159
H 13.08545 3.05554 5.26570
H 12.28121 1.69689 5.86810
H 10.08598 0.03288 3.68896
H 10.96798 -1.45167 3.38374
H 10.28030 0.82816 1.67740
H 10.13832 -0.92288 1.27925
H 11.73479 -0.05173 1.19751
H 15.43302 -4.90744 2.02760
H 14.32678 -3.97775 3.08972
H 16.05925 -4.16588 3.57491
H 19.96798 -2.18126 0.91264
H 22.03497 -3.87052 -2.47215
H 21.85045 -2.07264 -2.97961
H 20.65584 -3.35668 -3.29009

