%nproc=24
%mem=175gb
#p cam-b3lyp/Def2SVP td=(nstates=5)

TDDFT excited states in gaussian

0 1
Mg 0.00000 0.00000 0.00000
C -0.21700 -2.21800 2.80100
C -1.25500 2.44200 2.02600
C -0.24500 1.85000 -2.56400
C 0.14600 -2.82400 -2.03700
N -0.61700 -0.00900 2.12600
C -0.59400 -0.90800 3.10500
C -0.93600 -0.30900 4.50200
C -1.77300 0.96400 4.03200
C -1.15500 1.16800 2.66000
C -3.26300 0.68500 3.86300
C 0.34500 0.11000 5.29900
C 0.12400 0.39700 6.78700
H 1.16800 0.03300 7.73300
N -0.18500 1.96100 -0.15200
C -0.70300 2.80000 0.77700
C -0.62000 4.15600 0.19300
C -0.18700 4.01500 -1.22500
C -0.21400 2.58300 -1.38000
C -0.88700 5.40600 0.97400
C 0.18100 5.01300 -2.27700
O 0.30300 4.69000 -3.50800
C 0.31000 6.41400 -1.83700
N -0.26500 -0.41300 -2.02900
C -0.27900 0.56900 -2.93700
C -0.19600 0.02400 -4.33200
C 0.12400 -1.53300 -4.18000
C 0.08600 -1.63200 -2.63500
C -1.45100 0.20500 -5.19700
C 1.37300 -2.07000 -4.92300
C 2.62600 -1.49000 -4.30600
N 0.15000 -2.14400 0.30300
C 0.17300 -3.13600 -0.68800
C 0.17300 -4.43800 0.00400
C 0.13300 -4.11100 1.35800
C 0.08300 -2.69500 1.50200
C 0.14900 -5.71500 -0.62300
C 0.09600 -4.62900 2.71600
O 0.20800 -5.74700 3.22100
C -0.25500 -3.42800 3.70100
C 0.71700 -3.48200 4.84800
O 1.93100 -3.25500 4.66900
O 0.03800 -3.55600 6.00300
C 0.94300 -3.58300 7.18300
H -1.85900 3.22000 2.49700
H -0.21800 2.45300 -3.47400
H 0.27600 -3.74700 -2.60500
H -1.55400 -0.94900 5.13200
H -1.58500 1.83100 4.66500
H -3.48400 -0.37700 3.96900
H -3.51100 1.02700 2.85800
H -3.85200 1.30100 4.54300
H 0.66900 1.09600 4.96600
H 1.13000 -0.63900 5.18900
H -0.84400 0.02600 7.12500
H 0.06200 1.47700 6.92100
H -1.34400 5.18600 1.93800
H -1.65100 5.96300 0.43200
H 0.00700 6.02000 1.08400
H -0.63500 6.74400 -1.40500
H 0.66500 6.97000 -2.70400
H 1.04800 6.46600 -1.03600
H 0.60800 0.50100 -4.89100
H -0.69200 -2.15600 -4.54700
H -1.26700 0.74000 -6.12900
H -2.20400 0.71400 -4.59600
H -1.96700 -0.72000 -5.45300
H 1.35600 -1.75900 -5.96700
H 1.45200 -3.15700 -4.90200
H 2.71400 -0.52200 -4.79800
H 3.48700 -2.12100 -4.52900
H 2.49500 -1.30300 -3.24000
H 0.86700 -6.33300 -0.08400
H 0.40400 -5.64200 -1.68000
H -0.89100 -5.99900 -0.46300
H -1.28300 -3.58100 4.02800
H 0.69800 -4.47800 7.75500
H 0.83300 -2.61900 7.68000
H 2.00000 -3.75400 6.97600
Mg 13.14537 1.19054 0.99547
C 12.52537 3.55296 3.62485
C 12.21056 3.62203 -1.20648
C 13.24766 -0.99225 -1.30505
C 12.92077 -1.32782 3.39403
N 12.47595 3.27765 1.29229
C 12.33814 4.08598 2.33246
C 12.05807 5.56744 1.96310
C 11.42460 5.33627 0.50566
C 12.10182 4.01385 0.15174
C 9.92189 5.11148 0.53135
C 13.37093 6.42360 1.88959
C 13.14978 7.93696 1.83897
H 14.10925 8.80369 2.51770
N 13.25943 1.40498 -0.97420
C 12.85384 2.46662 -1.70199
C 13.13683 2.12466 -3.10454
C 13.59053 0.70839 -3.15970
C 13.35852 0.30364 -1.78768
C 13.04522 3.12469 -4.22033
C 14.13033 -0.14472 -4.26742
O 14.23659 -1.41637 -4.14730
C 14.44322 0.54075 -5.52985
N 12.88262 -0.87181 0.99594
C 13.03306 -1.58815 -0.13196
C 13.06907 -3.06875 0.16291
C 13.15456 -3.18770 1.75543
C 13.05902 -1.69150 2.12644
C 11.87513 -3.87727 -0.34421
C 14.33020 -4.01982 2.33691
C 15.64215 -3.31964 2.06504
N 12.97422 1.10301 3.14746
C 12.86898 -0.05525 3.94836
C 12.65812 0.39502 5.33948
C 12.63210 1.79478 5.24731
C 12.79371 2.18853 3.89146
C 12.47219 -0.45141 6.46869
C 12.49404 3.02852 5.98726
O 12.41924 3.32264 7.17958
C 12.29220 4.21831 4.95283
C 13.21565 5.33827 5.34710
O 14.44909 5.19183 5.28542
O 12.49614 6.46162 5.52244
C 13.36947 7.60341 5.90378
H 11.72103 4.23475 -1.96400
H 13.38719 -1.78430 -2.04442
H 12.93914 -2.04930 4.21367
H 11.34257 6.06803 2.60438
H 11.72907 6.11762 -0.18582
H 9.54441 5.02649 1.53953
H 9.75251 4.19272 -0.01477
H 9.41350 5.89693 -0.03517
H 13.84422 6.27005 0.91124
H 14.02955 6.18159 2.70094
H 12.12357 8.21288 2.11047
H 13.25101 8.26798 0.80253
H 12.52783 4.03769 -3.90074
H 12.38835 2.69317 -4.98334
H 14.01562 3.34243 -4.67153
H 13.54728 1.02693 -5.90849
H 14.90016 -0.21755 -6.16865
H 15.17000 1.33499 -5.32589
H 13.94838 -3.52830 -0.27152
H 12.26191 -3.67343 2.17624
H 12.16405 -4.70842 -1.01487
H 11.19449 -3.20258 -0.84626
H 11.24432 -4.30605 0.43261
H 14.38830 -4.99157 1.84045
H 14.24163 -4.20703 3.40185
H 15.88005 -3.62944 1.04302
H 16.40572 -3.65117 2.76582
H 15.51322 -2.23107 2.05794
H 13.07007 -0.03756 7.26980
H 12.75796 -1.47768 6.24763
H 11.39363 -0.34797 6.61449
H 11.24415 4.51695 4.99744
H 12.97613 8.00711 6.84186
H 13.37666 8.27947 5.02820
H 14.39286 7.38051 6.18209

