%nproc=24
%mem=175gb
#p cam-b3lyp/Def2SVP td=(nstates=5)

TDDFT excited states in gaussian

0 1
Mg 8.94086 0.80140 0.68640
C 6.61819 -0.26682 3.20497
C 10.07686 3.11031 2.92539
C 10.68258 2.06136 -1.64733
C 6.89762 -0.76258 -1.66409
N 8.34518 1.26405 2.76568
C 7.49240 0.75109 3.63974
C 7.63633 1.30787 5.08157
C 8.32089 2.71686 4.72802
C 8.98891 2.33951 3.40740
C 7.31517 3.82305 4.45559
C 8.57440 0.42131 5.97379
C 8.51614 0.72898 7.47169
H 8.65414 -0.37695 8.41528
N 10.51472 2.00770 0.76622
C 10.83533 2.86235 1.76023
C 12.07199 3.53338 1.33063
C 12.36499 3.12498 -0.07011
C 11.16126 2.38221 -0.38540
C 12.88933 4.39737 2.24655
C 13.52950 3.37395 -0.98013
O 13.46781 3.12540 -2.23601
C 14.71169 4.00422 -0.37460
N 8.70457 0.85407 -1.37848
C 9.63495 1.42088 -2.16654
C 9.38849 1.09743 -3.62085
C 8.23349 -0.00871 -3.62520
C 7.93700 -0.07095 -2.11073
C 8.96946 2.27385 -4.50224
C 8.53274 -1.33575 -4.37494
C 9.61566 -2.10401 -3.65213
N 7.19559 -0.47092 0.74396
C 6.48368 -0.99271 -0.35830
C 5.30608 -1.70331 0.18090
C 5.40290 -1.52463 1.56913
C 6.54816 -0.73978 1.87224
C 4.30255 -2.35481 -0.59020
C 4.79085 -1.81253 2.84631
O 3.84768 -2.50836 3.22046
C 5.48065 -0.90432 3.95344
C 5.81872 -1.78050 5.12840
O 6.66460 -2.68559 5.01922
O 5.25223 -1.26937 6.23665
C 5.56812 -2.09764 7.43080
H 10.35123 4.01602 3.46695
H 11.30901 2.37906 -2.48407
H 6.26575 -1.35925 -2.32546
H 6.69978 1.46961 5.60165
H 9.06788 2.99000 5.46881
H 6.30243 3.44916 4.42879
H 7.58987 4.24053 3.49574
H 7.43790 4.63142 5.18209
H 9.61947 0.68634 5.76806
H 8.38104 -0.62119 5.81123
H 7.65033 1.35010 7.73154
H 9.37800 1.34796 7.73259
H 12.33862 4.64686 3.16191
H 13.02604 5.35948 1.74105
H 13.87045 3.97007 2.46444
H 14.43011 4.96322 0.05376
H 15.46980 4.01856 -1.16006
H 15.05562 3.37746 0.45576
H 10.27629 0.68029 -4.08009
H 7.31765 0.36039 -4.10980
H 9.63994 2.43101 -5.36817
H 8.92762 3.16309 -3.88739
H 7.95622 2.21764 -4.89643
H 8.91638 -1.12662 -5.37656
H 7.66204 -1.97263 -4.49005
H 10.53554 -1.64335 -4.02455
H 9.57170 -3.16068 -3.90818
H 9.57118 -1.92457 -2.57163
H 4.09796 -3.29817 -0.10162
H 4.62409 -2.50071 -1.61932
H 3.49247 -1.62470 -0.51284
H 4.77328 -0.11787 4.21934
H 4.61351 -2.37940 7.88579
H 6.25762 -1.48727 8.04382
H 6.01705 -3.06948 7.26217

