%nproc=24
%mem=175gb
#p cam-b3lyp/Def2SVP td=(nstates=5)

TDDFT excited states in gaussian

0 1
Mg 0.00000 0.00000 0.00000
C -0.21700 -2.21800 2.80100
C -1.25500 2.44200 2.02600
C -0.24500 1.85000 -2.56400
C 0.14600 -2.82400 -2.03700
N -0.61700 -0.00900 2.12600
C -0.59400 -0.90800 3.10500
C -0.93600 -0.30900 4.50200
C -1.77300 0.96400 4.03200
C -1.15500 1.16800 2.66000
C -3.26300 0.68500 3.86300
C 0.34500 0.11000 5.29900
C 0.12400 0.39700 6.78700
H 1.16800 0.03300 7.73300
N -0.18500 1.96100 -0.15200
C -0.70300 2.80000 0.77700
C -0.62000 4.15600 0.19300
C -0.18700 4.01500 -1.22500
C -0.21400 2.58300 -1.38000
C -0.88700 5.40600 0.97400
C 0.18100 5.01300 -2.27700
O 0.30300 4.69000 -3.50800
C 0.31000 6.41400 -1.83700
N -0.26500 -0.41300 -2.02900
C -0.27900 0.56900 -2.93700
C -0.19600 0.02400 -4.33200
C 0.12400 -1.53300 -4.18000
C 0.08600 -1.63200 -2.63500
C -1.45100 0.20500 -5.19700
C 1.37300 -2.07000 -4.92300
C 2.62600 -1.49000 -4.30600
N 0.15000 -2.14400 0.30300
C 0.17300 -3.13600 -0.68800
C 0.17300 -4.43800 0.00400
C 0.13300 -4.11100 1.35800
C 0.08300 -2.69500 1.50200
C 0.14900 -5.71500 -0.62300
C 0.09600 -4.62900 2.71600
O 0.20800 -5.74700 3.22100
C -0.25500 -3.42800 3.70100
C 0.71700 -3.48200 4.84800
O 1.93100 -3.25500 4.66900
O 0.03800 -3.55600 6.00300
C 0.94300 -3.58300 7.18300
H -1.85900 3.22000 2.49700
H -0.21800 2.45300 -3.47400
H 0.27600 -3.74700 -2.60500
H -1.55400 -0.94900 5.13200
H -1.58500 1.83100 4.66500
H -3.48400 -0.37700 3.96900
H -3.51100 1.02700 2.85800
H -3.85200 1.30100 4.54300
H 0.66900 1.09600 4.96600
H 1.13000 -0.63900 5.18900
H -0.84400 0.02600 7.12500
H 0.06200 1.47700 6.92100
H -1.34400 5.18600 1.93800
H -1.65100 5.96300 0.43200
H 0.00700 6.02000 1.08400
H -0.63500 6.74400 -1.40500
H 0.66500 6.97000 -2.70400
H 1.04800 6.46600 -1.03600
H 0.60800 0.50100 -4.89100
H -0.69200 -2.15600 -4.54700
H -1.26700 0.74000 -6.12900
H -2.20400 0.71400 -4.59600
H -1.96700 -0.72000 -5.45300
H 1.35600 -1.75900 -5.96700
H 1.45200 -3.15700 -4.90200
H 2.71400 -0.52200 -4.79800
H 3.48700 -2.12100 -4.52900
H 2.49500 -1.30300 -3.24000
H 0.86700 -6.33300 -0.08400
H 0.40400 -5.64200 -1.68000
H -0.89100 -5.99900 -0.46300
H -1.28300 -3.58100 4.02800
H 0.69800 -4.47800 7.75500
H 0.83300 -2.61900 7.68000
H 2.00000 -3.75400 6.97600
Mg 10.50227 0.94578 0.80464
C 11.28004 3.46742 3.23682
C 10.38292 -1.28869 3.37904
C 10.26234 -1.37179 -1.34912
C 11.78819 3.08880 -1.62426
N 10.80892 1.17996 2.98257
C 11.03882 2.19679 3.79962
C 10.92907 1.84734 5.30806
C 11.21869 0.27075 5.21135
C 10.74332 0.02217 3.78135
C 12.69621 -0.07569 5.29054
C 9.49860 2.13422 5.88554
C 9.40478 2.10954 7.41274
H 8.49226 3.04168 8.06917
N 9.87029 -0.92564 0.99684
C 9.87295 -1.67414 2.11980
C 9.32651 -2.98370 1.73171
C 9.15477 -3.00094 0.25357
C 9.78915 -1.74694 -0.10016
C 8.94768 -4.03634 2.73265
C 8.53498 -3.98928 -0.68731
O 8.70842 -3.91238 -1.95492
C 7.79648 -5.10331 -0.07489
N 11.14941 0.77789 -1.16395
C 10.86831 -0.31626 -1.89315
C 11.19155 -0.09744 -3.35192
C 11.52317 1.46099 -3.48941
C 11.41652 1.87432 -2.00510
C 12.35768 -0.91636 -3.90501
C 10.70876 2.26376 -4.54058
C 9.26064 2.35013 -4.11529
N 11.20869 2.98681 0.74774
C 11.72795 3.67891 -0.36826
C 12.18218 5.00020 0.11162
C 11.91464 4.97617 1.48870
C 11.35323 3.72042 1.84564
C 12.79842 6.00724 -0.68352
C 11.98930 5.72360 2.72339
O 12.29566 6.87675 3.02361
C 11.69858 4.73315 3.93206
C 10.70184 5.39381 4.84451
O 9.54292 5.62189 4.45531
O 11.21204 5.44893 6.08831
C 10.25556 6.08618 7.03218
H 10.54455 -2.10905 4.07888
H 10.10132 -2.09573 -2.15128
H 12.11044 3.85100 -2.33692
H 11.66952 2.32335 5.93966
H 10.60952 -0.28683 5.91802
H 13.31812 0.80706 5.28003
H 12.90046 -0.69271 4.42531
H 12.88924 -0.70655 6.16293
H 8.83891 1.29114 5.64312
H 9.11806 3.06622 5.51514
H 10.39322 2.14115 7.88700
H 8.99103 1.14583 7.71946
H 9.34166 -3.80370 3.72968
H 9.46818 -4.95548 2.44259
H 7.87316 -4.23029 2.75370
H 8.46144 -5.66012 0.58104
H 7.35197 -5.65201 -0.90749
H 7.00279 -4.69092 0.55805
H 10.33819 -0.33157 -3.97646
H 12.56801 1.63040 -3.78849
H 12.07907 -1.53991 -4.77543
H 12.75152 -1.53163 -3.10696
H 13.22990 -0.33617 -4.20134
H 10.71921 1.74665 -5.50320
H 11.08974 3.26550 -4.70898
H 8.84402 1.40036 -4.46380
H 8.77054 3.19547 -4.59407
H 9.17168 2.36802 -3.02285
H 12.34672 6.94829 -0.39910
H 12.67048 5.80888 -1.74562
H 13.83907 5.89561 -0.36753
H 12.64784 4.54070 4.43349
H 10.78123 6.92214 7.50389
H 9.90408 5.27353 7.69537
H 9.39420 6.58968 6.60909

