%nproc=24
%mem=175gb
#p cam-b3lyp/Def2SVP td=(nstates=5)

TDDFT excited states in gaussian

0 1
Mg 0.00000 0.00000 0.00000
C -0.21700 -2.21800 2.80100
C -1.25500 2.44200 2.02600
C -0.24500 1.85000 -2.56400
C 0.14600 -2.82400 -2.03700
N -0.61700 -0.00900 2.12600
C -0.59400 -0.90800 3.10500
C -0.93600 -0.30900 4.50200
C -1.77300 0.96400 4.03200
C -1.15500 1.16800 2.66000
C -3.26300 0.68500 3.86300
C 0.34500 0.11000 5.29900
C 0.12400 0.39700 6.78700
H 1.16800 0.03300 7.73300
N -0.18500 1.96100 -0.15200
C -0.70300 2.80000 0.77700
C -0.62000 4.15600 0.19300
C -0.18700 4.01500 -1.22500
C -0.21400 2.58300 -1.38000
C -0.88700 5.40600 0.97400
C 0.18100 5.01300 -2.27700
O 0.30300 4.69000 -3.50800
C 0.31000 6.41400 -1.83700
N -0.26500 -0.41300 -2.02900
C -0.27900 0.56900 -2.93700
C -0.19600 0.02400 -4.33200
C 0.12400 -1.53300 -4.18000
C 0.08600 -1.63200 -2.63500
C -1.45100 0.20500 -5.19700
C 1.37300 -2.07000 -4.92300
C 2.62600 -1.49000 -4.30600
N 0.15000 -2.14400 0.30300
C 0.17300 -3.13600 -0.68800
C 0.17300 -4.43800 0.00400
C 0.13300 -4.11100 1.35800
C 0.08300 -2.69500 1.50200
C 0.14900 -5.71500 -0.62300
C 0.09600 -4.62900 2.71600
O 0.20800 -5.74700 3.22100
C -0.25500 -3.42800 3.70100
C 0.71700 -3.48200 4.84800
O 1.93100 -3.25500 4.66900
O 0.03800 -3.55600 6.00300
C 0.94300 -3.58300 7.18300
H -1.85900 3.22000 2.49700
H -0.21800 2.45300 -3.47400
H 0.27600 -3.74700 -2.60500
H -1.55400 -0.94900 5.13200
H -1.58500 1.83100 4.66500
H -3.48400 -0.37700 3.96900
H -3.51100 1.02700 2.85800
H -3.85200 1.30100 4.54300
H 0.66900 1.09600 4.96600
H 1.13000 -0.63900 5.18900
H -0.84400 0.02600 7.12500
H 0.06200 1.47700 6.92100
H -1.34400 5.18600 1.93800
H -1.65100 5.96300 0.43200
H 0.00700 6.02000 1.08400
H -0.63500 6.74400 -1.40500
H 0.66500 6.97000 -2.70400
H 1.04800 6.46600 -1.03600
H 0.60800 0.50100 -4.89100
H -0.69200 -2.15600 -4.54700
H -1.26700 0.74000 -6.12900
H -2.20400 0.71400 -4.59600
H -1.96700 -0.72000 -5.45300
H 1.35600 -1.75900 -5.96700
H 1.45200 -3.15700 -4.90200
H 2.71400 -0.52200 -4.79800
H 3.48700 -2.12100 -4.52900
H 2.49500 -1.30300 -3.24000
H 0.86700 -6.33300 -0.08400
H 0.40400 -5.64200 -1.68000
H -0.89100 -5.99900 -0.46300
H -1.28300 -3.58100 4.02800
H 0.69800 -4.47800 7.75500
H 0.83300 -2.61900 7.68000
H 2.00000 -3.75400 6.97600
Mg 31.53930 2.83811 2.40348
C 31.61193 -0.71218 2.92237
C 30.38687 3.13136 5.60043
C 31.03625 5.91870 1.83400
C 31.58798 2.19857 -1.02207
N 31.09766 1.33121 3.96119
C 31.22208 0.01666 4.06527
C 30.98883 -0.54024 5.49532
C 30.07328 0.64755 6.06957
C 30.56914 1.78855 5.18361
C 28.59053 0.44657 5.80425
C 32.32410 -0.68023 6.30740
C 32.21174 -1.50279 7.59290
H 33.34551 -2.33356 7.98896
N 31.29112 4.35287 3.66144
C 30.83504 4.29071 4.93006
C 30.81861 5.67770 5.42010
C 31.14567 6.58074 4.28332
C 31.15004 5.63324 3.18682
C 30.59116 6.02869 6.86180
C 31.39844 8.05538 4.19544
O 31.42978 8.66726 3.06963
C 31.51525 8.77765 5.47066
N 31.12720 3.90172 0.66530
C 31.00531 5.24061 0.68659
C 30.98555 5.80886 -0.71237
C 31.36423 4.59035 -1.67643
C 31.45401 3.45809 -0.62985
C 29.65942 6.42093 -1.16309
C 32.56330 4.80229 -2.64078
C 33.84810 4.90853 -1.85122
N 31.77595 1.09431 1.15000
C 31.73875 1.04655 -0.26083
C 31.83173 -0.37529 -0.65091
C 31.89390 -1.06323 0.57030
C 31.82289 -0.13712 1.64583
C 31.80167 -0.87613 -1.98297
C 31.99275 -2.36310 1.19422
O 32.16922 -3.51076 0.78745
C 31.68720 -2.20342 2.74585
C 32.75046 -2.94632 3.50749
O 33.93488 -2.56900 3.47028
O 32.16415 -3.84222 4.32233
C 33.17753 -4.59646 5.10720
H 29.80923 3.31970 6.50583
H 30.97215 6.97921 1.57966
H 31.70816 1.92382 -2.07218
H 30.44857 -1.47850 5.53489
H 30.29803 0.85009 7.11352
H 28.40711 -0.40625 5.16770
H 28.25145 1.35590 5.32551
H 28.04386 0.38166 6.74939
H 32.58905 0.29664 6.73198
H 33.10537 -1.07930 5.69017
H 31.27992 -2.07990 7.63286
H 32.13789 -0.81560 8.43926
H 30.21440 5.16951 7.43037
H 29.77019 6.75335 6.88880
H 31.47117 6.47397 7.33081
H 30.60264 8.64359 6.04654
H 31.78355 9.80151 5.20310
H 32.32520 8.32699 6.05505
H 31.72870 6.58892 -0.82345
H 30.53437 4.33060 -2.35000
H 29.75171 7.47652 -1.48134
H 28.94815 6.32878 -0.35306
H 29.15807 5.89229 -1.97203
H 32.45237 5.74546 -3.18142
H 32.66581 4.01650 -3.38173
H 33.86258 5.95839 -1.54356
H 34.70426 4.66927 -2.47874
H 33.80238 4.29897 -0.94127
H 32.57084 -1.63418 -2.04800
H 31.96202 -0.08256 -2.70982
H 30.78164 -1.26774 -2.02112
H 30.69240 -2.61199 2.92758
H 33.00194 -5.65986 4.91739
H 33.06827 -4.24630 6.15085
H 34.21551 -4.49748 4.81182

