%nproc=24
%mem=175gb
#p cam-b3lyp/Def2SVP td=(nstates=5)

TDDFT excited states in gaussian

0 1
Mg 0.00000 0.00000 0.00000
C -0.21700 -2.21800 2.80100
C -1.25500 2.44200 2.02600
C -0.24500 1.85000 -2.56400
C 0.14600 -2.82400 -2.03700
N -0.61700 -0.00900 2.12600
C -0.59400 -0.90800 3.10500
C -0.93600 -0.30900 4.50200
C -1.77300 0.96400 4.03200
C -1.15500 1.16800 2.66000
C -3.26300 0.68500 3.86300
C 0.34500 0.11000 5.29900
C 0.12400 0.39700 6.78700
H 1.16800 0.03300 7.73300
N -0.18500 1.96100 -0.15200
C -0.70300 2.80000 0.77700
C -0.62000 4.15600 0.19300
C -0.18700 4.01500 -1.22500
C -0.21400 2.58300 -1.38000
C -0.88700 5.40600 0.97400
C 0.18100 5.01300 -2.27700
O 0.30300 4.69000 -3.50800
C 0.31000 6.41400 -1.83700
N -0.26500 -0.41300 -2.02900
C -0.27900 0.56900 -2.93700
C -0.19600 0.02400 -4.33200
C 0.12400 -1.53300 -4.18000
C 0.08600 -1.63200 -2.63500
C -1.45100 0.20500 -5.19700
C 1.37300 -2.07000 -4.92300
C 2.62600 -1.49000 -4.30600
N 0.15000 -2.14400 0.30300
C 0.17300 -3.13600 -0.68800
C 0.17300 -4.43800 0.00400
C 0.13300 -4.11100 1.35800
C 0.08300 -2.69500 1.50200
C 0.14900 -5.71500 -0.62300
C 0.09600 -4.62900 2.71600
O 0.20800 -5.74700 3.22100
C -0.25500 -3.42800 3.70100
C 0.71700 -3.48200 4.84800
O 1.93100 -3.25500 4.66900
O 0.03800 -3.55600 6.00300
C 0.94300 -3.58300 7.18300
H -1.85900 3.22000 2.49700
H -0.21800 2.45300 -3.47400
H 0.27600 -3.74700 -2.60500
H -1.55400 -0.94900 5.13200
H -1.58500 1.83100 4.66500
H -3.48400 -0.37700 3.96900
H -3.51100 1.02700 2.85800
H -3.85200 1.30100 4.54300
H 0.66900 1.09600 4.96600
H 1.13000 -0.63900 5.18900
H -0.84400 0.02600 7.12500
H 0.06200 1.47700 6.92100
H -1.34400 5.18600 1.93800
H -1.65100 5.96300 0.43200
H 0.00700 6.02000 1.08400
H -0.63500 6.74400 -1.40500
H 0.66500 6.97000 -2.70400
H 1.04800 6.46600 -1.03600
H 0.60800 0.50100 -4.89100
H -0.69200 -2.15600 -4.54700
H -1.26700 0.74000 -6.12900
H -2.20400 0.71400 -4.59600
H -1.96700 -0.72000 -5.45300
H 1.35600 -1.75900 -5.96700
H 1.45200 -3.15700 -4.90200
H 2.71400 -0.52200 -4.79800
H 3.48700 -2.12100 -4.52900
H 2.49500 -1.30300 -3.24000
H 0.86700 -6.33300 -0.08400
H 0.40400 -5.64200 -1.68000
H -0.89100 -5.99900 -0.46300
H -1.28300 -3.58100 4.02800
H 0.69800 -4.47800 7.75500
H 0.83300 -2.61900 7.68000
H 2.00000 -3.75400 6.97600
Mg 10.51725 0.94989 0.80608
C 10.37596 -1.76409 3.14989
C 9.26690 2.94768 3.27186
C 10.20511 3.25241 -1.35456
C 10.65556 -1.43317 -1.73313
N 9.93710 0.53012 2.89880
C 9.98530 -0.52473 3.69837
C 9.66988 -0.21835 5.18706
C 8.80058 1.11578 4.97904
C 9.39027 1.58722 3.65137
C 7.31969 0.84329 4.77398
C 10.96496 0.06497 6.02640
C 10.76086 0.06654 7.54300
H 11.83213 -0.45058 8.39001
N 10.30689 2.90952 1.03884
C 9.80216 3.55183 2.11306
C 9.84403 4.98449 1.78153
C 10.26137 5.12500 0.35998
C 10.25369 3.73668 -0.05546
C 9.58379 6.06190 2.79389
C 10.59772 6.31340 -0.48900
O 10.70361 6.22239 -1.76310
C 10.70745 7.60487 0.20494
N 10.22776 0.92187 -1.25250
C 10.17885 2.06462 -1.95936
C 10.24130 1.79127 -3.44320
C 10.58742 0.23588 -3.57933
C 10.57672 -0.15741 -2.08581
C 8.96807 2.09986 -4.23064
C 11.83066 -0.13638 -4.43282
C 13.08972 0.34361 -3.74742
N 10.70336 -1.19999 0.69914
C 10.71503 -1.99826 -0.46564
C 10.74400 -3.40854 -0.02666
C 10.72377 -3.33280 1.37418
C 10.66454 -1.97199 1.77940
C 10.73505 -4.54635 -0.88189
C 10.72832 -4.09492 2.60212
O 10.85624 -5.28541 2.88517
C 10.37565 -3.11746 3.80486
C 11.36807 -3.36199 4.90842
O 12.57198 -3.09573 4.74623
O 10.70417 -3.66278 6.03941
C 11.64535 -3.90303 7.16558
H 8.66786 3.60888 3.89864
H 10.20863 4.01079 -2.14090
H 10.79867 -2.23283 -2.46302
H 9.07786 -0.97314 5.69062
H 8.99791 1.84207 5.76321
H 7.11306 -0.21280 4.68385
H 7.04870 1.36090 3.86311
H 6.73620 1.31167 5.57179
H 11.26748 1.10936 5.87645
H 11.74513 -0.62418 5.76749
H 9.79793 -0.37332 7.82977
H 10.69404 1.10283 7.88308
H 9.13998 5.65397 3.71042
H 8.80339 6.70889 2.37886
H 10.46923 6.66591 3.00326
H 9.76848 7.82610 0.70678
H 11.04110 8.31639 -0.55288
H 11.46961 7.51797 0.98736
H 11.02969 2.36889 -3.90999
H 9.76965 -0.32320 -4.05738
H 9.12969 2.81554 -5.05875
H 8.22377 2.47700 -3.54193
H 8.46828 1.23264 -4.65881
H 11.79143 0.37035 -5.40020
H 11.91682 -1.19980 -4.62957
H 13.15058 1.39328 -4.05003
H 13.95376 -0.21842 -4.09612
H 12.97748 0.32082 -2.65722
H 11.46332 -5.24055 -0.48412
H 10.96510 -4.27307 -1.90959
H 9.69714 -4.86959 -0.76560
H 9.35397 -3.33737 4.11693
H 11.41870 -4.89640 7.56500
H 11.51750 -3.04362 7.85029
H 12.69727 -4.00625 6.92631

