%nproc=24
%mem=175gb
#p cam-b3lyp/Def2SVP td=(nstates=5)

TDDFT excited states in gaussian

0 1
Mg 8.94136 0.81038 0.67369
C 8.32997 3.99017 2.22102
C 8.15246 2.27554 -2.30381
C 9.03257 -2.06978 -0.65439
C 8.56352 -0.63766 3.82109
N 8.33612 2.87340 0.15418
C 8.19727 4.01172 0.81697
C 7.97873 5.25746 -0.08300
C 7.37854 4.51779 -1.37587
C 8.01946 3.14386 -1.19096
C 5.86885 4.35104 -1.32715
C 9.32180 5.99715 -0.41621
C 9.15433 7.38907 -1.02963
H 10.12377 8.42425 -0.68170
N 9.11757 0.27913 -1.23033
C 8.76917 1.00514 -2.31329
C 9.07920 0.16297 -3.47896
C 9.48527 -1.18288 -2.99061
C 9.20134 -1.04675 -1.57606
C 9.05317 0.68154 -4.88745
C 10.02606 -2.39647 -3.68411
O 10.08513 -3.53567 -3.09968
C 10.39740 -2.23309 -5.09723
N 8.60791 -1.09955 1.42423
C 8.76498 -2.18511 0.64654
C 8.74182 -3.45230 1.46758
C 8.77875 -2.97606 2.99382
C 8.72445 -1.44699 2.78318
C 7.53536 -4.36491 1.24855
C 9.90841 -3.55963 3.88601
C 11.25074 -3.03813 3.42603
N 8.70740 1.52815 2.69808
C 8.54011 0.75048 3.86484
C 8.30618 1.68748 4.98275
C 8.33091 2.95427 4.38016
C 8.54368 2.81542 2.98196
C 8.05986 1.32257 6.33637
C 8.21480 4.37681 4.60728
O 8.11697 5.09233 5.60338
C 8.08291 5.10412 3.20015
C 9.03300 6.27019 3.18914
O 10.26191 6.08462 3.23344
O 8.34795 7.39412 2.91011
C 9.24908 8.57678 2.87711
H 7.70560 2.57535 -3.25214
H 9.16531 -3.08183 -1.04374
H 8.53421 -1.00534 4.84902
H 7.26328 5.97501 0.30046
H 7.72885 4.98145 -2.29438
H 5.46073 4.65290 -0.37402
H 5.68325 3.29941 -1.50223
H 5.40376 4.88232 -2.16248
H 9.81661 5.48267 -1.25000
H 9.94884 6.05794 0.45199
H 8.13106 7.76797 -0.91878
H 9.29574 7.31131 -2.11036
H 8.55879 1.65900 -4.94716
H 8.40336 0.01292 -5.46240
H 10.04268 0.69601 -5.34933
H 9.52962 -1.90197 -5.66271
H 10.84561 -3.18350 -5.39337
H 11.14510 -1.43566 -5.17253
H 9.61656 -4.05882 1.26744
H 7.85855 -3.25240 3.52926
H 7.81409 -5.39114 0.94318
H 6.89259 -3.90896 0.50727
H 6.86878 -4.46244 2.10374
H 9.94687 -4.64708 3.78537
H 9.78382 -3.33802 4.94069
H 11.50623 -3.70880 2.60019
H 11.98263 -3.10364 4.22858
H 11.15958 -2.02674 3.01319
H 8.64906 1.99013 6.95095
H 8.31620 0.28133 6.52041
H 6.98185 1.49593 6.39203
H 7.04492 5.42074 3.09105
H 8.84387 9.30703 3.58438
H 9.30392 8.88104 1.81496
H 10.25604 8.45039 3.25726

