%nproc=24
%mem=175gb
#p cam-b3lyp/Def2SVP td=(nstates=5)

TDDFT excited states in gaussian

0 1
Mg 31.52261 2.84132 2.39267
C 30.63247 0.02648 0.35223
C 30.93019 4.81125 -0.32818
C 32.72837 5.28261 4.02169
C 33.11125 0.60461 4.54187
N 30.86919 2.36372 0.33423
C 30.50143 1.26563 -0.30865
C 29.88738 1.51705 -1.71197
C 30.56277 2.94143 -2.01830
C 30.77223 3.42592 -0.58510
C 31.92210 2.83121 -2.68869
C 28.32229 1.62065 -1.66973
C 27.63644 1.55652 -3.03620
H 26.34237 0.88707 -3.13474
N 31.33861 4.79576 2.10131
C 31.07401 5.42344 0.93629
C 31.06138 6.86115 1.24771
C 31.50282 7.03958 2.65768
C 31.90239 5.68493 2.98224
C 30.58131 7.89998 0.27622
C 31.56811 8.23449 3.55997
O 32.20831 8.20587 4.67000
C 30.93951 9.46687 3.06236
N 32.92046 2.95958 3.92707
C 33.22657 4.13977 4.49395
C 34.04125 3.94631 5.75064
C 34.01325 2.37427 6.04304
C 33.22741 1.89981 4.80097
C 35.49117 4.42552 5.68383
C 33.51791 1.92809 7.44598
C 32.04628 2.23941 7.59681
N 31.67759 0.69319 2.56466
C 32.41482 -0.03471 3.52421
C 32.30644 -1.46342 3.16438
C 31.52658 -1.46577 1.99806
C 31.19072 -0.13114 1.64385
C 32.92553 -2.54412 3.85353
C 30.92002 -2.29305 0.98003
O 30.79301 -3.50451 0.80695
C 30.42008 -1.35504 -0.20175
C 29.01498 -1.76037 -0.55377
O 28.08968 -1.60764 0.26300
O 28.95726 -2.05672 -1.86496
C 27.58090 -2.45394 -2.26457
H 30.99225 5.49260 -1.17717
H 33.08044 6.08026 4.67993
H 33.49645 -0.16260 5.21691
H 30.17582 0.79817 -2.46945
H 29.87670 3.59847 -2.54648
H 32.26344 1.80806 -2.74162
H 32.59667 3.42436 -2.08523
H 31.89742 3.30975 -3.67191
H 28.03877 2.63618 -1.36468
H 27.90826 0.87242 -1.02214
H 28.31430 1.20005 -3.82131
H 27.38074 2.57327 -3.34420
H 30.47628 7.48728 -0.73474
H 31.37934 8.64464 0.18406
H 29.66903 8.39908 0.60987
H 31.40079 9.75244 2.11996
H 31.01059 10.18317 3.88317
H 29.88542 9.25950 2.84672
H 33.59170 4.46738 6.58699
H 35.01602 1.92827 5.96973
H 35.74217 5.16724 6.46546
H 35.67003 4.83579 4.69883
H 36.24095 3.63865 5.74599
H 34.03573 2.49036 8.22692
H 33.68030 0.87431 7.64639
H 32.04588 3.29315 7.89131
H 31.59944 1.61414 8.36714
H 31.52777 2.16610 6.63378
H 32.18533 -3.32946 3.93001
H 33.28361 -2.23738 4.83407
H 33.74725 -2.76752 3.16787
H 31.10653 -1.48855 -1.03873
H 27.65615 -3.44059 -2.73204
H 27.20173 -1.62634 -2.89311
H 26.86591 -2.64856 -1.47377

