%nproc=24
%mem=175gb
#p cam-b3lyp/Def2SVP td=(nstates=5)

TDDFT excited states in gaussian

0 1
Mg 0.00000 0.00000 0.00000
C -0.21700 -2.21800 2.80100
C -1.25500 2.44200 2.02600
C -0.24500 1.85000 -2.56400
C 0.14600 -2.82400 -2.03700
N -0.61700 -0.00900 2.12600
C -0.59400 -0.90800 3.10500
C -0.93600 -0.30900 4.50200
C -1.77300 0.96400 4.03200
C -1.15500 1.16800 2.66000
C -3.26300 0.68500 3.86300
C 0.34500 0.11000 5.29900
C 0.12400 0.39700 6.78700
H 1.16800 0.03300 7.73300
N -0.18500 1.96100 -0.15200
C -0.70300 2.80000 0.77700
C -0.62000 4.15600 0.19300
C -0.18700 4.01500 -1.22500
C -0.21400 2.58300 -1.38000
C -0.88700 5.40600 0.97400
C 0.18100 5.01300 -2.27700
O 0.30300 4.69000 -3.50800
C 0.31000 6.41400 -1.83700
N -0.26500 -0.41300 -2.02900
C -0.27900 0.56900 -2.93700
C -0.19600 0.02400 -4.33200
C 0.12400 -1.53300 -4.18000
C 0.08600 -1.63200 -2.63500
C -1.45100 0.20500 -5.19700
C 1.37300 -2.07000 -4.92300
C 2.62600 -1.49000 -4.30600
N 0.15000 -2.14400 0.30300
C 0.17300 -3.13600 -0.68800
C 0.17300 -4.43800 0.00400
C 0.13300 -4.11100 1.35800
C 0.08300 -2.69500 1.50200
C 0.14900 -5.71500 -0.62300
C 0.09600 -4.62900 2.71600
O 0.20800 -5.74700 3.22100
C -0.25500 -3.42800 3.70100
C 0.71700 -3.48200 4.84800
O 1.93100 -3.25500 4.66900
O 0.03800 -3.55600 6.00300
C 0.94300 -3.58300 7.18300
H -1.85900 3.22000 2.49700
H -0.21800 2.45300 -3.47400
H 0.27600 -3.74700 -2.60500
H -1.55400 -0.94900 5.13200
H -1.58500 1.83100 4.66500
H -3.48400 -0.37700 3.96900
H -3.51100 1.02700 2.85800
H -3.85200 1.30100 4.54300
H 0.66900 1.09600 4.96600
H 1.13000 -0.63900 5.18900
H -0.84400 0.02600 7.12500
H 0.06200 1.47700 6.92100
H -1.34400 5.18600 1.93800
H -1.65100 5.96300 0.43200
H 0.00700 6.02000 1.08400
H -0.63500 6.74400 -1.40500
H 0.66500 6.97000 -2.70400
H 1.04800 6.46600 -1.03600
H 0.60800 0.50100 -4.89100
H -0.69200 -2.15600 -4.54700
H -1.26700 0.74000 -6.12900
H -2.20400 0.71400 -4.59600
H -1.96700 -0.72000 -5.45300
H 1.35600 -1.75900 -5.96700
H 1.45200 -3.15700 -4.90200
H 2.71400 -0.52200 -4.79800
H 3.48700 -2.12100 -4.52900
H 2.49500 -1.30300 -3.24000
H 0.86700 -6.33300 -0.08400
H 0.40400 -5.64200 -1.68000
H -0.89100 -5.99900 -0.46300
H -1.28300 -3.58100 4.02800
H 0.69800 -4.47800 7.75500
H 0.83300 -2.61900 7.68000
H 2.00000 -3.75400 6.97600
Mg 15.75626 1.42240 1.19938
C 13.97047 -1.38779 -0.13961
C 14.13779 3.35552 -1.09806
C 17.63697 3.83240 2.04921
C 18.02046 -0.84562 2.56875
N 14.26881 0.93179 -0.36237
C 13.61895 -0.15966 -0.73758
C 12.47531 0.09112 -1.75678
C 13.01102 1.46840 -2.38526
C 13.83084 1.97516 -1.20045
C 13.94890 1.26744 -3.56396
C 11.08326 0.28158 -1.05825
C 9.87803 0.22222 -1.99934
H 8.64033 -0.37727 -1.50822
N 15.54274 3.37637 0.92559
C 14.83135 3.98929 -0.04371
C 15.00948 5.43263 0.17808
C 16.01693 5.62058 1.25717
C 16.46304 4.25426 1.44219
C 14.20218 6.47248 -0.54331
C 16.50798 6.83157 1.99105
O 17.55890 6.79466 2.72388
C 15.77628 8.08423 1.75243
N 17.67860 1.50071 1.98729
C 18.24357 2.67567 2.31627
C 19.50821 2.46817 3.11502
C 19.54569 0.90758 3.46250
C 18.28702 0.44712 2.69497
C 20.80869 2.86520 2.41681
C 19.67909 0.52336 4.96159
C 18.42600 0.91867 5.70918
N 15.88499 -0.72621 1.38634
C 16.93181 -1.47012 1.97358
C 16.62405 -2.89899 1.75905
C 15.42171 -2.88668 1.03606
C 15.01972 -1.54457 0.79806
C 17.43486 -3.99511 2.16800
C 14.40669 -3.70375 0.41088
O 14.17034 -4.91023 0.36326
C 13.48775 -2.76854 -0.48762
C 12.05199 -3.10442 -0.19047
O 11.57042 -2.88134 0.93422
O 11.42874 -3.42877 -1.33796
C 9.99898 -3.75928 -1.09640
H 13.85851 4.01170 -1.92287
H 18.26737 4.62518 2.45858
H 18.62627 -1.61629 3.05013
H 12.38442 -0.66064 -2.53161
H 12.19167 2.14919 -2.60102
H 14.19440 0.22610 -3.71050
H 14.83926 1.83704 -3.33189
H 13.52598 1.72269 -4.46408
H 10.99726 1.31824 -0.70799
H 10.95596 -0.42687 -0.26294
H 10.14151 -0.18985 -2.98103
H 9.55567 1.24374 -2.21521
H 13.65969 6.04184 -1.39400
H 14.91328 7.16970 -0.99947
H 13.53990 7.02889 0.12337
H 15.80226 8.32115 0.69146
H 16.21893 8.81519 2.43187
H 14.72367 7.92997 2.01477
H 19.47938 3.03324 4.03858
H 20.40290 0.40549 2.99034
H 21.39820 3.61068 2.98322
H 20.56623 3.24107 1.43169
H 21.48167 2.04004 2.19007
H 20.50232 1.07504 5.42213
H 19.86978 -0.53260 5.12152
H 18.59282 1.97765 5.92786
H 18.32626 0.33771 6.62383
H 17.54374 0.85069 5.06215
H 16.76771 -4.73649 2.58725
H 18.18883 -3.68489 2.88846
H 17.87599 -4.27986 1.20905
H 13.74564 -2.95979 -1.52997
H 9.82863 -4.75960 -1.50632
H 9.42083 -2.92754 -1.54104
H 9.68265 -3.89513 -0.06882

