%nproc=24
%mem=175gb
#p cam-b3lyp/Def2SVP td=(nstates=5)

TDDFT excited states in gaussian

0 1
Mg 0.00000 0.00000 0.00000
C -0.21700 -2.21800 2.80100
C -1.25500 2.44200 2.02600
C -0.24500 1.85000 -2.56400
C 0.14600 -2.82400 -2.03700
N -0.61700 -0.00900 2.12600
C -0.59400 -0.90800 3.10500
C -0.93600 -0.30900 4.50200
C -1.77300 0.96400 4.03200
C -1.15500 1.16800 2.66000
C -3.26300 0.68500 3.86300
C 0.34500 0.11000 5.29900
C 0.12400 0.39700 6.78700
H 1.16800 0.03300 7.73300
N -0.18500 1.96100 -0.15200
C -0.70300 2.80000 0.77700
C -0.62000 4.15600 0.19300
C -0.18700 4.01500 -1.22500
C -0.21400 2.58300 -1.38000
C -0.88700 5.40600 0.97400
C 0.18100 5.01300 -2.27700
O 0.30300 4.69000 -3.50800
C 0.31000 6.41400 -1.83700
N -0.26500 -0.41300 -2.02900
C -0.27900 0.56900 -2.93700
C -0.19600 0.02400 -4.33200
C 0.12400 -1.53300 -4.18000
C 0.08600 -1.63200 -2.63500
C -1.45100 0.20500 -5.19700
C 1.37300 -2.07000 -4.92300
C 2.62600 -1.49000 -4.30600
N 0.15000 -2.14400 0.30300
C 0.17300 -3.13600 -0.68800
C 0.17300 -4.43800 0.00400
C 0.13300 -4.11100 1.35800
C 0.08300 -2.69500 1.50200
C 0.14900 -5.71500 -0.62300
C 0.09600 -4.62900 2.71600
O 0.20800 -5.74700 3.22100
C -0.25500 -3.42800 3.70100
C 0.71700 -3.48200 4.84800
O 1.93100 -3.25500 4.66900
O 0.03800 -3.55600 6.00300
C 0.94300 -3.58300 7.18300
H -1.85900 3.22000 2.49700
H -0.21800 2.45300 -3.47400
H 0.27600 -3.74700 -2.60500
H -1.55400 -0.94900 5.13200
H -1.58500 1.83100 4.66500
H -3.48400 -0.37700 3.96900
H -3.51100 1.02700 2.85800
H -3.85200 1.30100 4.54300
H 0.66900 1.09600 4.96600
H 1.13000 -0.63900 5.18900
H -0.84400 0.02600 7.12500
H 0.06200 1.47700 6.92100
H -1.34400 5.18600 1.93800
H -1.65100 5.96300 0.43200
H 0.00700 6.02000 1.08400
H -0.63500 6.74400 -1.40500
H 0.66500 6.97000 -2.70400
H 1.04800 6.46600 -1.03600
H 0.60800 0.50100 -4.89100
H -0.69200 -2.15600 -4.54700
H -1.26700 0.74000 -6.12900
H -2.20400 0.71400 -4.59600
H -1.96700 -0.72000 -5.45300
H 1.35600 -1.75900 -5.96700
H 1.45200 -3.15700 -4.90200
H 2.71400 -0.52200 -4.79800
H 3.48700 -2.12100 -4.52900
H 2.49500 -1.30300 -3.24000
H 0.86700 -6.33300 -0.08400
H 0.40400 -5.64200 -1.68000
H -0.89100 -5.99900 -0.46300
H -1.28300 -3.58100 4.02800
H 0.69800 -4.47800 7.75500
H 0.83300 -2.61900 7.68000
H 2.00000 -3.75400 6.97600
Mg 10.50782 0.95460 0.80426
C 12.69501 0.63795 3.63181
C 7.89715 0.65723 2.97924
C 8.56951 0.77829 -1.70159
C 13.21533 0.08761 -1.21154
N 10.43322 0.68742 2.99864
C 11.32697 0.64268 3.97514
C 10.72117 0.68164 5.40379
C 9.25966 0.11130 5.06089
C 9.16749 0.53902 3.59760
C 9.17583 -1.40483 5.12153
C 10.64810 2.13826 5.98253
C 10.35712 2.22039 7.48264
H 10.99000 3.28437 8.25717
N 8.54758 1.23603 0.67460
C 7.63803 1.09352 1.66135
C 6.33322 1.39487 1.05239
C 6.52784 1.56613 -0.41304
C 7.91607 1.17097 -0.54255
C 5.08017 1.57282 1.85962
C 5.61203 1.99991 -1.51727
O 5.92543 1.84799 -2.75078
C 4.29852 2.52188 -1.11264
N 10.78363 0.29505 -1.14799
C 9.79129 0.37579 -2.05168
C 10.30056 0.10300 -3.44690
C 11.89432 0.05998 -3.32175
C 12.03294 0.23431 -1.79342
C 9.80609 -1.19023 -4.09454
C 12.69906 1.01036 -4.25010
C 12.45325 2.44855 -3.85439
N 12.62378 0.63021 1.09676
C 13.57117 0.24920 0.12137
C 14.85576 0.04032 0.82038
C 14.55882 0.29395 2.16797
C 13.18148 0.61702 2.30227
C 16.07348 -0.38014 0.21500
C 15.09497 0.35148 3.50884
O 16.21935 0.25820 3.99955
C 13.88402 0.45330 4.53335
C 14.19649 1.54991 5.51432
O 14.27349 2.73242 5.13702
O 14.13776 1.05356 6.76354
C 14.42959 2.10623 7.77277
H 7.01574 0.34693 3.54113
H 7.96979 0.80834 -2.61423
H 14.12928 -0.08843 -1.78285
H 11.21233 0.03744 6.12320
H 8.49369 0.60663 5.65190
H 10.14546 -1.85632 5.27022
H 8.75571 -1.71436 4.17352
H 8.45559 -1.71230 5.88512
H 9.75161 2.63504 5.58977
H 11.54454 2.68287 5.75797
H 10.48749 1.25231 7.98141
H 9.29778 2.45139 7.61851
H 5.21320 1.22386 2.89109
H 4.32952 0.89537 1.43837
H 4.69572 2.59428 1.82095
H 3.77029 1.76454 -0.53829
H 3.82289 2.86260 -2.03436
H 4.45240 3.37483 -0.44226
H 10.02260 0.90208 -4.12315
H 12.29517 -0.93570 -3.56210
H 9.29383 -1.02608 -5.06135
H 9.14921 -1.69207 -3.39654
H 10.57399 -1.94168 -4.27023
H 12.35704 0.90988 -5.28309
H 13.76674 0.81797 -4.24421
H 11.51427 2.68732 -4.36272
H 13.26373 3.08559 -4.20273
H 12.27567 2.53522 -2.77615
H 16.85866 0.23365 0.63602
H 16.03211 -0.28635 -0.86818
H 16.10021 -1.42495 0.53583
H 13.78556 -0.51698 5.02164
H 15.25757 1.73911 8.38707
H 13.46958 2.30205 8.28635
H 14.83273 3.04617 7.41437

