%nproc=24
%mem=175gb
#p cam-b3lyp/Def2SVP td=(nstates=5)

TDDFT excited states in gaussian

0 1
Mg 8.94113 0.81159 0.67522
C 8.31728 3.49135 2.97930
C 8.05498 2.95498 -1.82582
C 9.04566 -1.64404 -1.33137
C 8.66501 -1.38301 3.36840
N 8.29003 2.92529 0.69941
C 8.14939 3.85922 1.62803
C 7.88852 5.28486 1.07212
C 7.26836 4.87783 -0.35217
C 7.93572 3.51546 -0.52900
C 5.76323 4.67134 -0.31635
C 9.21081 6.11335 0.90725
C 9.00575 7.61022 0.66421
H 9.96674 8.54692 1.24003
N 9.07850 0.77556 -1.30427
C 8.69164 1.74078 -2.16450
C 8.98612 1.22264 -3.50948
C 9.42582 -0.19328 -3.38081
C 9.17498 -0.42018 -1.97166
C 8.91674 2.07515 -4.74310
C 9.96867 -1.18367 -4.36602
O 10.06059 -2.43101 -4.08579
C 10.30210 -0.66523 -5.70076
N 8.65724 -1.23193 0.93173
C 8.81239 -2.08574 -0.09533
C 8.83005 -3.51775 0.38367
C 8.89724 -3.43620 1.97942
C 8.81310 -1.90444 2.15830
C 7.63337 -4.37306 -0.03201
C 10.05797 -4.19893 2.67484
C 11.37988 -3.55013 2.33279
N 8.74604 0.99694 2.81897
C 8.62034 -0.05042 3.75776
C 8.39922 0.57310 5.07865
C 8.38856 1.95032 4.81100
C 8.56873 2.16897 3.41844
C 8.19253 -0.12290 6.30298
C 8.25525 3.26851 5.38834
O 8.17070 3.71091 6.53328
C 8.07673 4.32048 4.21027
C 9.00736 5.47293 4.47165
O 10.23981 5.30900 4.44357
O 8.29757 6.61573 4.49583
C 9.17844 7.78865 4.74105
H 7.57992 3.47185 -2.66011
H 9.18497 -2.52400 -1.96362
H 8.66719 -1.99580 4.27237
H 7.17136 5.86845 1.63683
H 7.58823 5.56328 -1.13268
H 5.37412 4.71717 0.68994
H 5.59029 3.69272 -0.74466
H 5.26903 5.38375 -0.98311
H 9.69295 5.83379 -0.03833
H 9.85817 5.96950 1.75037
H 7.97958 7.92715 0.88664
H 9.12148 7.80734 -0.40432
H 8.40536 3.02564 -4.54698
H 8.26369 1.55692 -5.45361
H 9.89410 2.22583 -5.20649
H 9.41530 -0.22263 -6.14815
H 10.75805 -1.50186 -6.23371
H 11.03476 0.14191 -5.58958
H 9.70920 -4.03605 0.02096
H 7.99519 -3.85724 2.44727
H 7.92091 -5.28448 -0.58942
H 6.96511 -3.76088 -0.62295
H 6.98991 -4.69513 0.78495
H 10.11142 -5.22589 2.30517
H 9.95608 -4.24993 3.75373
H 11.62553 -3.98811 1.36072
H 12.13245 -3.79762 3.07873
H 11.26221 -2.47001 2.18741
H 8.78600 0.38312 7.05280
H 8.47010 -1.17132 6.21607
H 7.11358 0.00758 6.42176
H 7.03138 4.63160 4.20450
H 8.77923 8.31060 5.61620
H 9.20196 8.34912 3.78760
H 10.19644 7.59349 5.05734

