%nproc=24
%mem=175gb
#p cam-b3lyp/Def2SVP td=(nstates=5)

TDDFT excited states in gaussian

0 1
Mg 0.00000 0.00000 0.00000
C -0.21700 -2.21800 2.80100
C -1.25500 2.44200 2.02600
C -0.24500 1.85000 -2.56400
C 0.14600 -2.82400 -2.03700
N -0.61700 -0.00900 2.12600
C -0.59400 -0.90800 3.10500
C -0.93600 -0.30900 4.50200
C -1.77300 0.96400 4.03200
C -1.15500 1.16800 2.66000
C -3.26300 0.68500 3.86300
C 0.34500 0.11000 5.29900
C 0.12400 0.39700 6.78700
H 1.16800 0.03300 7.73300
N -0.18500 1.96100 -0.15200
C -0.70300 2.80000 0.77700
C -0.62000 4.15600 0.19300
C -0.18700 4.01500 -1.22500
C -0.21400 2.58300 -1.38000
C -0.88700 5.40600 0.97400
C 0.18100 5.01300 -2.27700
O 0.30300 4.69000 -3.50800
C 0.31000 6.41400 -1.83700
N -0.26500 -0.41300 -2.02900
C -0.27900 0.56900 -2.93700
C -0.19600 0.02400 -4.33200
C 0.12400 -1.53300 -4.18000
C 0.08600 -1.63200 -2.63500
C -1.45100 0.20500 -5.19700
C 1.37300 -2.07000 -4.92300
C 2.62600 -1.49000 -4.30600
N 0.15000 -2.14400 0.30300
C 0.17300 -3.13600 -0.68800
C 0.17300 -4.43800 0.00400
C 0.13300 -4.11100 1.35800
C 0.08300 -2.69500 1.50200
C 0.14900 -5.71500 -0.62300
C 0.09600 -4.62900 2.71600
O 0.20800 -5.74700 3.22100
C -0.25500 -3.42800 3.70100
C 0.71700 -3.48200 4.84800
O 1.93100 -3.25500 4.66900
O 0.03800 -3.55600 6.00300
C 0.94300 -3.58300 7.18300
H -1.85900 3.22000 2.49700
H -0.21800 2.45300 -3.47400
H 0.27600 -3.74700 -2.60500
H -1.55400 -0.94900 5.13200
H -1.58500 1.83100 4.66500
H -3.48400 -0.37700 3.96900
H -3.51100 1.02700 2.85800
H -3.85200 1.30100 4.54300
H 0.66900 1.09600 4.96600
H 1.13000 -0.63900 5.18900
H -0.84400 0.02600 7.12500
H 0.06200 1.47700 6.92100
H -1.34400 5.18600 1.93800
H -1.65100 5.96300 0.43200
H 0.00700 6.02000 1.08400
H -0.63500 6.74400 -1.40500
H 0.66500 6.97000 -2.70400
H 1.04800 6.46600 -1.03600
H 0.60800 0.50100 -4.89100
H -0.69200 -2.15600 -4.54700
H -1.26700 0.74000 -6.12900
H -2.20400 0.71400 -4.59600
H -1.96700 -0.72000 -5.45300
H 1.35600 -1.75900 -5.96700
H 1.45200 -3.15700 -4.90200
H 2.71400 -0.52200 -4.79800
H 3.48700 -2.12100 -4.52900
H 2.49500 -1.30300 -3.24000
H 0.86700 -6.33300 -0.08400
H 0.40400 -5.64200 -1.68000
H -0.89100 -5.99900 -0.46300
H -1.28300 -3.58100 4.02800
H 0.69800 -4.47800 7.75500
H 0.83300 -2.61900 7.68000
H 2.00000 -3.75400 6.97600
Mg 10.51871 0.94607 0.79133
C 10.13638 4.17278 -0.73221
C 9.99186 -0.40797 -2.29470
C 10.40173 -1.90790 2.17287
C 9.87920 2.47236 3.85844
N 10.12668 1.86684 -1.18117
C 10.06488 3.10409 -1.64993
C 9.99880 3.20295 -3.19764
C 9.38800 1.75002 -3.50555
C 9.89245 1.00612 -2.27072
C 7.86867 1.72094 -3.49316
C 11.41656 3.37929 -3.84640
C 11.40269 3.79102 -5.32018
H 12.44728 4.69091 -5.80132
N 10.72492 -0.86742 0.01202
C 10.48979 -1.23598 -1.26475
C 10.76993 -2.67891 -1.32507
C 11.03062 -3.16432 0.05737
C 10.70155 -1.97689 0.82013
C 10.85016 -3.43892 -2.61711
C 11.48673 -4.48336 0.60354
O 11.41705 -4.75462 1.85430
C 11.93008 -5.48219 -0.37996
N 9.98115 0.32510 2.70124
C 10.07069 -0.96806 3.05855
C 9.89763 -1.13531 4.54934
C 9.91422 0.34569 5.15261
C 10.00867 1.15288 3.83925
C 8.62303 -1.85177 4.99483
C 10.94764 0.63685 6.27508
C 12.35001 0.57696 5.71370
N 10.26707 2.97227 1.49788
C 9.98090 3.38619 2.81730
C 9.78713 4.85030 2.78193
C 9.95260 5.18619 1.42978
C 10.20994 4.01152 0.67254
C 9.45225 5.67224 3.89476
C 9.95757 6.26601 0.46923
O 9.88405 7.49210 0.54017
C 9.95149 5.64201 -0.99261
C 11.00377 6.34774 -1.80327
O 12.20766 6.23280 -1.51337
O 10.43650 6.86162 -2.90984
C 11.44250 7.56213 -3.75191
H 9.61421 -0.93988 -3.16840
H 10.45759 -2.85355 2.71702
H 9.77357 3.03509 4.78841
H 9.33653 3.97247 -3.57581
H 9.81722 1.32445 -4.40888
H 7.45043 2.65974 -3.16169
H 7.59523 0.92411 -2.81394
H 7.48932 1.42351 -4.47497
H 11.89664 2.39584 -3.93058
H 12.00976 4.07303 -3.28296
H 10.41458 4.14313 -5.64050
H 11.58135 2.90239 -5.93044
H 10.45008 -2.85313 -3.45388
H 10.16654 -4.29037 -2.53022
H 11.85526 -3.81240 -2.82438
H 11.12051 -5.68737 -1.07635
H 12.30154 -6.32483 0.20643
H 12.74999 -5.05450 -0.96769
H 10.72089 -1.69684 4.97364
H 8.95108 0.60839 5.61434
H 8.81933 -2.74521 5.61718
H 8.05608 -2.11961 4.11315
H 7.91524 -1.23506 5.54610
H 10.89074 -0.13087 7.05066
H 10.79992 1.59604 6.75998
H 12.57738 -0.49313 5.73132
H 13.03873 1.13722 6.34282
H 12.36893 0.90077 4.66659
H 10.07382 6.55523 3.82786
H 9.60449 5.14832 4.83608
H 8.39320 5.85286 3.69212
H 8.95222 5.78495 -1.40566
H 11.07655 8.58211 -3.90486
H 11.56916 6.93209 -4.65233
H 12.41696 7.75011 -3.31655

