%nproc=24
%mem=175gb
#p cam-b3lyp/Def2SVP td=(nstates=5)

TDDFT excited states in gaussian

0 1
Mg 31.54060 2.83582 2.38910
C 31.31209 5.27844 -0.23014
C 31.05367 0.44884 0.00167
C 31.28706 0.69780 4.71977
C 30.86876 5.40110 4.65044
N 31.23559 2.97063 0.20254
C 31.22947 3.94805 -0.69131
C 31.20998 3.46930 -2.16778
C 30.55837 2.01906 -1.94174
C 31.00233 1.77346 -0.50116
C 29.03920 2.02956 -1.97815
C 32.65049 3.36260 -2.78061
C 32.69186 3.20067 -4.30173
H 33.77979 3.83615 -5.04001
N 31.70594 0.85870 2.34175
C 31.49393 0.04954 1.28271
C 31.72585 -1.31923 1.76940
C 31.93107 -1.26485 3.24237
C 31.62191 0.12725 3.50038
C 31.81586 -2.50450 0.85264
C 32.32614 -2.29819 4.25348
O 32.21234 -2.08639 5.51246
C 32.76209 -3.59915 3.72534
N 30.92899 2.97652 4.37114
C 30.96400 1.90537 5.18314
C 30.74382 2.30474 6.62272
C 30.79453 3.90311 6.63773
C 30.95325 4.16548 5.12400
C 29.43341 1.83147 7.25140
C 31.80567 4.56604 7.61282
C 33.22025 4.27251 7.16762
N 31.33922 4.98463 2.28870
C 31.03080 5.86299 3.35052
C 30.88857 7.21419 2.77047
C 31.10311 7.02288 1.39720
C 31.34089 5.64623 1.13685
C 30.55129 8.39628 3.48813
C 31.17199 7.67085 0.10721
O 31.13874 8.83762 -0.28172
C 31.18518 6.55103 -1.02073
C 32.28329 6.88419 -1.99319
O 33.47397 6.85846 -1.63510
O 31.76509 6.96487 -3.23227
C 32.81766 7.28256 -4.23376
H 30.68244 -0.35999 -0.62830
H 31.29517 0.01925 5.57591
H 30.75668 6.26985 5.30266
H 30.58537 4.05872 -2.82824
H 30.99770 1.28055 -2.60729
H 28.64442 3.03322 -2.03251
H 28.71969 1.54631 -1.06413
H 28.67734 1.39861 -2.79504
H 33.09861 2.40751 -2.47773
H 33.25127 4.20243 -2.49014
H 31.72575 3.43079 -4.76717
H 32.85679 2.14576 -4.53405
H 31.45963 -2.26093 -0.15591
H 31.10119 -3.24852 1.22082
H 32.81289 -2.94984 0.83660
H 31.96566 -4.02958 3.12293
H 33.08786 -4.17324 4.59492
H 33.61229 -3.43685 3.05345
H 31.53513 1.92209 7.25558
H 29.82851 4.33867 6.93257
H 29.58145 1.22728 8.16634
H 28.88237 1.26909 6.50936
H 28.73216 2.62345 7.50875
H 31.70082 4.14075 8.61396
H 31.67759 5.63948 7.70389
H 33.41010 3.28005 7.58723
H 33.91004 5.01056 7.57199
H 33.27947 4.18590 6.07646
H 31.20449 9.17832 3.12449
H 30.65913 8.25419 4.56142
H 29.50514 8.51213 3.19247
H 30.20332 6.55281 -1.49562
H 32.49142 8.18147 -4.76593
H 32.94761 6.36176 -4.83291
H 33.78550 7.59697 -3.86109

