%nproc=24
%mem=175gb
#p cam-b3lyp/Def2SVP td=(nstates=5)

TDDFT excited states in gaussian

0 1
Mg 0.00000 0.00000 0.00000
C -0.21700 -2.21800 2.80100
C -1.25500 2.44200 2.02600
C -0.24500 1.85000 -2.56400
C 0.14600 -2.82400 -2.03700
N -0.61700 -0.00900 2.12600
C -0.59400 -0.90800 3.10500
C -0.93600 -0.30900 4.50200
C -1.77300 0.96400 4.03200
C -1.15500 1.16800 2.66000
C -3.26300 0.68500 3.86300
C 0.34500 0.11000 5.29900
C 0.12400 0.39700 6.78700
H 1.16800 0.03300 7.73300
N -0.18500 1.96100 -0.15200
C -0.70300 2.80000 0.77700
C -0.62000 4.15600 0.19300
C -0.18700 4.01500 -1.22500
C -0.21400 2.58300 -1.38000
C -0.88700 5.40600 0.97400
C 0.18100 5.01300 -2.27700
O 0.30300 4.69000 -3.50800
C 0.31000 6.41400 -1.83700
N -0.26500 -0.41300 -2.02900
C -0.27900 0.56900 -2.93700
C -0.19600 0.02400 -4.33200
C 0.12400 -1.53300 -4.18000
C 0.08600 -1.63200 -2.63500
C -1.45100 0.20500 -5.19700
C 1.37300 -2.07000 -4.92300
C 2.62600 -1.49000 -4.30600
N 0.15000 -2.14400 0.30300
C 0.17300 -3.13600 -0.68800
C 0.17300 -4.43800 0.00400
C 0.13300 -4.11100 1.35800
C 0.08300 -2.69500 1.50200
C 0.14900 -5.71500 -0.62300
C 0.09600 -4.62900 2.71600
O 0.20800 -5.74700 3.22100
C -0.25500 -3.42800 3.70100
C 0.71700 -3.48200 4.84800
O 1.93100 -3.25500 4.66900
O 0.03800 -3.55600 6.00300
C 0.94300 -3.58300 7.18300
H -1.85900 3.22000 2.49700
H -0.21800 2.45300 -3.47400
H 0.27600 -3.74700 -2.60500
H -1.55400 -0.94900 5.13200
H -1.58500 1.83100 4.66500
H -3.48400 -0.37700 3.96900
H -3.51100 1.02700 2.85800
H -3.85200 1.30100 4.54300
H 0.66900 1.09600 4.96600
H 1.13000 -0.63900 5.18900
H -0.84400 0.02600 7.12500
H 0.06200 1.47700 6.92100
H -1.34400 5.18600 1.93800
H -1.65100 5.96300 0.43200
H 0.00700 6.02000 1.08400
H -0.63500 6.74400 -1.40500
H 0.66500 6.97000 -2.70400
H 1.04800 6.46600 -1.03600
H 0.60800 0.50100 -4.89100
H -0.69200 -2.15600 -4.54700
H -1.26700 0.74000 -6.12900
H -2.20400 0.71400 -4.59600
H -1.96700 -0.72000 -5.45300
H 1.35600 -1.75900 -5.96700
H 1.45200 -3.15700 -4.90200
H 2.71400 -0.52200 -4.79800
H 3.48700 -2.12100 -4.52900
H 2.49500 -1.30300 -3.24000
H 0.86700 -6.33300 -0.08400
H 0.40400 -5.64200 -1.68000
H -0.89100 -5.99900 -0.46300
H -1.28300 -3.58100 4.02800
H 0.69800 -4.47800 7.75500
H 0.83300 -2.61900 7.68000
H 2.00000 -3.75400 6.97600
Mg 8.94103 0.81203 0.67609
C 8.32103 3.17445 3.30547
C 8.00621 3.24353 -1.52586
C 9.04332 -1.37076 -1.62443
C 8.71643 -1.70633 3.07466
N 8.27161 2.89914 0.97292
C 8.13380 3.70748 2.01308
C 7.85373 5.18893 1.64373
C 7.22026 4.95776 0.18628
C 7.89748 3.63534 -0.16764
C 5.71755 4.73297 0.21197
C 9.16659 6.04509 1.57021
C 8.94543 7.55846 1.51959
H 9.90491 8.42518 2.19832
N 9.05509 1.02647 -1.29358
C 8.64950 2.08811 -2.02137
C 8.93249 1.74615 -3.42392
C 9.38619 0.32988 -3.47908
C 9.15418 -0.07487 -2.10706
C 8.84088 2.74618 -4.53970
C 9.92598 -0.52322 -4.58679
O 10.03225 -1.79488 -4.46668
C 10.23888 0.16224 -5.84922
N 8.67828 -1.25032 0.67656
C 8.82871 -1.96666 -0.45133
C 8.86473 -3.44725 -0.15647
C 8.95022 -3.56620 1.43605
C 8.85468 -2.07000 1.80706
C 7.67078 -4.25578 -0.66358
C 10.12586 -4.39832 2.01753
C 11.43781 -3.69815 1.74566
N 8.76988 0.72450 2.82809
C 8.66464 -0.43376 3.62898
C 8.45378 0.01652 5.02010
C 8.42776 1.41627 4.92794
C 8.58937 1.81002 3.57208
C 8.26785 -0.82991 6.14931
C 8.28970 2.65001 5.66788
O 8.21490 2.94413 6.86021
C 8.08786 3.83981 4.63346
C 9.01131 4.95976 5.02773
O 10.24475 4.81332 4.96605
O 8.29180 6.08311 5.20306
C 9.16513 7.22490 5.58441
H 7.51669 3.85624 -2.28337
H 9.18285 -2.16281 -2.36380
H 8.73480 -2.42781 3.89429
H 7.13823 5.68952 2.28500
H 7.52473 5.73912 -0.50520
H 5.34007 4.64798 1.22015
H 5.54817 3.81422 -0.33415
H 5.20916 5.51842 -0.35455
H 9.63988 5.89154 0.59186
H 9.82520 5.80308 2.38156
H 7.91923 7.83437 1.79110
H 9.04667 7.88947 0.48316
H 8.32349 3.65918 -4.22012
H 8.18401 2.31467 -5.30271
H 9.81128 2.96392 -4.99091
H 9.34294 0.64843 -6.22786
H 10.69582 -0.59606 -6.48803
H 10.96566 0.95648 -5.64527
H 9.74404 -3.90681 -0.59090
H 8.05757 -4.05193 1.85686
H 7.95970 -5.08693 -1.33425
H 6.99015 -3.58108 -1.16564
H 7.03998 -4.68456 0.11323
H 10.18396 -5.37008 1.52108
H 10.03729 -4.58554 3.08247
H 11.67571 -4.00794 0.72364
H 12.20138 -4.02967 2.44644
H 11.30887 -2.60958 1.73856
H 8.86573 -0.41607 6.95042
H 8.55362 -1.85619 5.92825
H 7.18929 -0.72648 6.29511
H 7.03981 4.13844 4.67807
H 8.77179 7.62860 6.52248
H 9.17232 7.90096 4.70883
H 10.18852 7.00200 5.86271

