%nproc=24
%mem=175gb
#p cam-b3lyp/Def2SVP td=(nstates=5)

TDDFT excited states in gaussian

0 1
Mg 10.51862 0.93935 0.80049
C 10.70642 -0.81582 -2.32411
C 9.79347 -2.05356 2.26720
C 9.90381 2.51628 3.48429
C 10.12425 3.87716 -1.03238
N 10.30617 -1.10091 -0.02681
C 10.46077 -1.65706 -1.21893
C 10.42537 -3.20892 -1.21417
C 9.57763 -3.42598 0.13234
C 9.93719 -2.13156 0.85888
C 8.07567 -3.44291 -0.09825
C 11.85771 -3.83913 -1.09903
C 11.92665 -5.33828 -1.39827
H 13.11371 -5.86012 -2.06987
N 10.41805 0.29448 2.67469
C 10.13391 -0.95765 3.09026
C 10.16362 -0.91013 4.56030
C 10.32601 0.50822 4.98058
C 10.19859 1.17827 3.70195
C 10.12336 -2.14334 5.41528
C 10.54526 1.15548 6.31444
O 10.41987 2.42057 6.47773
C 10.81935 0.25433 7.44328
N 9.86700 2.87685 1.17973
C 9.73109 3.32636 2.43965
C 9.51965 4.82135 2.46561
C 9.78432 5.31874 0.96890
C 10.02629 3.95388 0.28773
C 8.13765 5.28995 2.92046
C 10.84299 6.43893 0.77638
C 12.21905 5.91222 1.11467
N 10.61141 1.49570 -1.28515
C 10.38935 2.77641 -1.83702
C 10.44915 2.63373 -3.30620
C 10.68081 1.26495 -3.50931
C 10.73970 0.59803 -2.25582
C 10.25061 3.67859 -4.25223
C 10.87834 0.23084 -4.49941
O 11.01502 0.21348 -5.72201
C 10.77770 -1.18309 -3.78035
C 11.94185 -2.01969 -4.23575
O 13.10590 -1.69763 -3.93934
O 11.48000 -3.17126 -4.75629
C 12.59791 -4.03976 -5.21213
H 9.33764 -2.89511 2.78960
H 9.79260 3.12689 4.38332
H 10.10874 4.76270 -1.67134
H 9.90763 -3.65407 -2.05533
H 9.93519 -4.28796 0.68958
H 7.82144 -3.18727 -1.11616
H 7.66437 -2.71490 0.58868
H 7.65917 -4.40889 0.20134
H 12.16319 -3.84372 -0.04480
H 12.55615 -3.31397 -1.72115
H 11.01601 -5.70298 -1.88884
H 11.95573 -5.88044 -0.44999
H 9.83629 -3.02746 4.83277
H 9.30348 -2.01065 6.12947
H 11.05144 -2.30294 5.96832
H 9.99241 -0.44239 7.55821
H 11.03635 0.90630 8.29165
H 11.70516 -0.34511 7.20532
H 10.23120 5.30114 3.12637
H 8.87652 5.74080 0.51326
H 8.17310 5.97775 3.78634
H 7.54056 4.41787 3.15176
H 7.54124 5.78157 2.15378
H 10.64922 7.26545 1.46447
H 10.85751 6.85172 -0.22681
H 12.25989 6.01006 2.20364
H 12.98822 6.51428 0.63516
H 12.30173 4.84547 0.87622
H 11.01458 3.56234 -5.00942
H 10.30321 4.65751 -3.78029
H 9.23977 3.44191 -4.59495
H 9.82106 -1.62574 -4.06049
H 12.41309 -4.27188 -6.26552
H 12.62239 -4.89064 -4.50561
H 13.58653 -3.59876 -5.26304

