%nproc=24
%mem=175gb
#p cam-b3lyp/Def2SVP td=(nstates=5)

TDDFT excited states in gaussian

0 1
Mg 15.77378 1.41993 1.20513
C 14.21519 -0.41948 3.86341
C 15.88895 4.09177 3.32234
C 16.73171 3.19384 -1.24498
C 14.51698 -0.96970 -0.99846
N 15.10731 1.67903 3.29820
C 14.58494 0.89224 4.22688
C 14.52532 1.52217 5.64434
C 14.53039 3.07087 5.21965
C 15.25112 2.95409 3.87816
C 13.14012 3.63039 4.96779
C 15.78133 1.16050 6.51247
C 15.64727 1.48179 8.00262
H 16.27573 0.58377 8.96755
N 16.68345 3.18348 1.17449
C 16.64134 4.13748 2.12812
C 17.45790 5.25064 1.61994
C 17.85035 4.94260 0.21786
C 17.06932 3.74479 -0.01737
C 17.85804 6.42088 2.47073
C 18.76593 5.62179 -0.75508
O 18.77444 5.31388 -1.99924
C 19.58521 6.72193 -0.22598
N 15.46890 1.27326 -0.84618
C 16.04126 2.14564 -1.69429
C 15.90817 1.68241 -3.12540
C 15.33673 0.19102 -3.04286
C 15.14591 0.07738 -1.51444
C 14.99773 2.52739 -4.01619
C 16.14884 -0.91510 -3.77062
C 17.47958 -1.11590 -3.08200
N 14.74201 -0.46999 1.38318
C 14.28477 -1.29454 0.33193
C 13.54213 -2.41337 0.94767
C 13.59962 -2.14766 2.32411
C 14.30943 -0.93724 2.54896
C 12.88783 -3.46420 0.24499
C 13.21211 -2.61030 3.63731
O 12.66949 -3.62353 4.07625
C 13.48450 -1.44569 4.68414
C 14.20336 -2.04043 5.86400
O 15.35058 -2.50352 5.73737
O 13.51016 -1.76917 6.98483
C 14.18915 -2.32917 8.18366
H 15.76815 5.05171 3.82515
H 17.13417 3.70954 -2.11994
H 14.17876 -1.80786 -1.61147
H 13.62732 1.29348 6.20566
H 15.11344 3.66919 5.91493
H 12.38377 2.86035 5.00123
H 13.17804 4.08103 3.98467
H 12.93004 4.44622 5.66538
H 16.60563 1.83535 6.24818
H 16.04640 0.12861 6.38771
H 14.60833 1.68659 8.28829
H 16.17043 2.41979 8.20381
H 17.28441 6.45362 3.40523
H 17.55385 7.32568 1.93346
H 18.93435 6.46202 2.65114
H 18.93552 7.48834 0.18992
H 20.23792 7.02179 -1.04813
H 20.19135 6.33947 0.60284
H 16.87322 1.66228 -3.61670
H 14.33538 0.11296 -3.49122
H 15.50759 2.91541 -4.91818
H 14.60069 3.34122 -3.42411
H 14.09301 2.02759 -4.35805
H 16.37278 -0.60833 -4.79527
H 15.63021 -1.86642 -3.82534
H 18.10165 -0.32506 -3.51175
H 17.88256 -2.10128 -3.30711
H 17.39880 -0.92359 -2.00583
H 13.12212 -4.38171 0.76823
H 13.20636 -3.50597 -0.79451
H 11.84662 -3.14546 0.34276
H 12.51834 -1.02377 4.96357
H 13.46206 -2.96934 8.69278
H 14.57198 -1.45631 8.74518
H 15.00421 -3.02419 8.01913

