%nproc=24
%mem=175gb
#p cam-b3lyp/Def2SVP td=(nstates=5)

TDDFT excited states in gaussian

0 1
Mg 15.77378 1.42044 1.20508
C 14.34985 -0.49863 3.88251
C 15.73320 4.10589 3.30777
C 16.60360 3.23753 -1.26008
C 14.65674 -1.05563 -0.97827
N 15.10478 1.64867 3.30094
C 14.63849 0.83573 4.23691
C 14.54778 1.46847 5.65147
C 14.45287 3.01206 5.21880
C 15.17153 2.93343 3.87343
C 13.02868 3.48165 4.97281
C 15.82921 1.19131 6.51353
C 15.68406 1.51175 8.00283
H 16.37350 0.66038 8.96838
N 16.57048 3.23752 1.15967
C 16.47410 4.19222 2.10863
C 17.21598 5.35171 1.58962
C 17.61867 5.06122 0.18670
C 16.91318 3.81539 -0.03747
C 17.54674 6.54948 2.43186
C 18.48391 5.79126 -0.79545
O 18.50437 5.47763 -2.03804
C 19.23548 6.94366 -0.27717
N 15.46653 1.24357 -0.84350
C 15.97781 2.14552 -1.69965
C 15.86562 1.66694 -3.12750
C 15.38966 0.14305 -3.03371
C 15.21546 0.02607 -1.50355
C 14.89854 2.44806 -4.01688
C 16.26541 -0.91381 -3.76087
C 17.61021 -1.02673 -3.07960
N 14.86404 -0.52961 1.39932
C 14.45334 -1.38708 0.35521
C 13.78624 -2.54697 0.98134
C 13.83509 -2.27058 2.35601
C 14.46866 -1.01670 2.57017
C 13.19519 -3.64074 0.28819
C 13.48528 -2.74942 3.67398
O 13.01010 -3.79232 4.12152
C 13.69008 -1.56422 4.71308
C 14.45193 -2.10605 5.89144
O 15.62524 -2.49677 5.75998
O 13.74972 -1.87273 7.01520
C 14.46972 -2.38230 8.21260
H 15.55523 5.05909 3.80639
H 16.96761 3.77268 -2.14019
H 14.36828 -1.91677 -1.58482
H 13.66930 1.18687 6.21958
H 15.00125 3.64970 5.90732
H 12.32250 2.66576 5.01496
H 13.03232 3.92834 3.98717
H 12.77184 4.28649 5.66750
H 16.60782 1.91520 6.24061
H 16.15793 0.17746 6.39241
H 14.63601 1.65238 8.29396
H 16.14835 2.48189 8.19590
H 16.97776 6.55124 3.36976
H 17.18303 7.43038 1.89186
H 18.61938 6.65921 2.60528
H 18.54133 7.66998 0.13887
H 19.86312 7.27942 -1.10493
H 19.86940 6.60465 0.54978
H 16.82709 1.70482 -3.62474
H 14.39255 -0.00031 -3.47537
H 15.37760 2.86238 -4.92403
H 14.45461 3.23857 -3.42650
H 14.02504 1.89047 -4.35048
H 16.46350 -0.59923 -4.78847
H 15.80734 -1.89616 -3.80744
H 18.17873 -0.20072 -3.51731
H 18.07305 -1.98604 -3.30218
H 17.52390 -0.83394 -2.00394
H 13.48985 -4.53879 0.81466
H 13.50953 -3.66813 -0.75306
H 12.13659 -3.38757 0.39087
H 12.70095 -1.20236 4.99640
H 13.78738 -3.06411 8.72955
H 14.80020 -1.48400 8.76721
H 15.32590 -3.02559 8.04652

