%nproc=24
%mem=175gb
#p cam-b3lyp/Def2SVP td=(nstates=5)

TDDFT excited states in gaussian

0 1
Mg 10.51995 0.95094 0.80122
C 11.58664 -1.18068 3.48402
C 10.50328 3.51834 3.04683
C 9.15296 2.75528 -1.42210
C 9.53380 -1.92326 -0.90529
N 11.00293 1.03331 2.95811
C 11.45633 0.17318 3.85753
C 11.86504 0.81365 5.21116
C 10.95446 2.13433 5.13697
C 10.83666 2.26510 3.61984
C 9.56048 1.93713 5.70905
C 13.39187 1.17102 5.26651
C 13.92237 1.51216 6.66077
H 15.28267 1.10850 7.00588
N 10.37616 2.92520 0.65905
C 10.41201 3.81858 1.66993
C 10.24449 5.13989 1.04524
C 9.94190 4.94132 -0.39827
C 9.78803 3.50094 -0.43964
C 10.45225 6.42532 1.79218
C 9.80022 5.89186 -1.54832
O 9.29973 5.52288 -2.66912
C 10.17800 7.28972 -1.29385
N 9.30067 0.50554 -0.82277
C 8.88707 1.47114 -1.66210
C 8.25620 0.88302 -2.90166
C 8.55125 -0.68714 -2.83024
C 9.25520 -0.75015 -1.45697
C 6.75269 1.11159 -3.05532
C 9.26150 -1.32619 -4.05493
C 10.67765 -0.80744 -4.15891
N 10.70782 -1.17988 1.10509
C 10.19964 -2.20721 0.28021
C 10.47928 -3.48912 0.95914
C 11.11529 -3.11440 2.15227
C 11.20626 -1.69794 2.22207
C 10.10961 -4.77942 0.48525
C 11.72088 -3.59455 3.37350
O 12.00726 -4.70321 3.82362
C 11.93970 -2.35879 4.34890
C 13.34127 -2.43615 4.88938
O 14.31887 -2.30256 4.13238
O 13.29555 -2.43713 6.23411
C 14.66235 -2.50161 6.81679
H 10.24554 4.34161 3.71368
H 8.76157 3.32557 -2.26771
H 9.34550 -2.86893 -1.41806
H 11.60430 0.23093 6.08651
H 11.47123 2.99439 5.55483
H 9.37205 0.90491 5.96432
H 8.87667 2.26707 4.93795
H 9.40323 2.60799 6.55849
H 13.55284 2.13327 4.76361
H 13.98285 0.38546 4.83725
H 13.22183 1.21789 7.45171
H 13.98723 2.59920 6.75099
H 10.50398 6.25749 2.87503
H 9.54670 7.02578 1.65334
H 11.31128 6.99136 1.42565
H 9.57673 7.68349 -0.47784
H 10.09301 7.79549 -2.25762
H 11.22043 7.31466 -0.95717
H 8.71359 1.28618 -3.79685
H 7.62453 -1.27198 -2.73546
H 6.48275 1.61939 -4.00049
H 6.40549 1.68242 -2.20436
H 6.14058 0.21324 -2.99618
H 8.75616 -1.03646 -4.97950
H 9.28181 -2.41048 -4.02518
H 10.55358 0.14561 -4.68178
H 11.29623 -1.49474 -4.73252
H 11.09025 -0.58812 -3.16729
H 10.96267 -5.42561 0.64405
H 9.82170 -4.75033 -0.56358
H 9.25898 -4.99087 1.13870
H 11.19160 -2.42897 5.13948
H 14.68350 -3.36659 7.48690
H 14.84090 -1.50856 7.27035
H 15.48232 -2.73286 6.14701

