%nproc=24
%mem=175gb
#p cam-b3lyp/Def2SVP td=(nstates=5)

TDDFT excited states in gaussian

0 1
Mg 13.13703 1.18520 0.98784
C 15.12594 -1.34460 -0.60069
C 15.12198 3.49715 -0.54495
C 11.69803 3.42188 2.71814
C 12.07866 -1.25630 3.23831
N 14.86786 0.97940 -0.37383
C 15.49552 -0.03081 -0.95679
C 16.52570 0.39040 -2.03887
C 16.83185 1.87680 -1.51376
C 15.51469 2.15769 -0.79343
C 17.95624 1.93484 -0.49311
C 15.90576 0.40669 -3.48019
C 16.92475 0.50709 -4.61744
H 16.65125 -0.20610 -5.86204
N 13.03742 3.14926 0.72114
C 13.91664 3.92541 0.05344
C 13.40413 5.29998 0.16324
C 12.23928 5.29370 1.08940
C 12.29378 3.92843 1.57226
C 13.96421 6.44320 -0.63223
C 11.24889 6.34639 1.48585
O 10.46356 6.18932 2.48657
C 11.28968 7.60432 0.72596
N 12.21234 1.15020 2.84958
C 11.61966 2.24945 3.34788
C 10.78786 1.91708 4.56362
C 10.75104 0.31987 4.63542
C 11.68274 -0.00835 3.44816
C 11.29901 2.47433 5.89200
C 9.35063 -0.35037 4.68329
C 8.63254 -0.13986 3.36973
N 13.36580 -0.95435 1.18291
C 12.86165 -1.77550 2.21520
C 13.37359 -3.14031 1.97513
C 14.16504 -3.01278 0.82368
C 14.16389 -1.65973 0.38921
C 13.12983 -4.27673 2.79686
C 15.00978 -3.71304 -0.11693
O 15.30976 -4.89132 -0.30504
C 15.77162 -2.63985 -1.00815
C 15.65047 -3.06088 -2.44710
O 14.54163 -3.07605 -3.00999
O 16.88121 -3.16587 -2.98060
C 16.81294 -3.57050 -4.41009
H 15.82024 4.29703 -0.79295
H 11.09686 4.13221 3.29043
H 11.71512 -2.09287 3.83886
H 17.43729 -0.19496 -2.05050
H 16.96865 2.56779 -2.34152
H 18.28582 0.94906 -0.20027
H 17.55341 2.46756 0.35835
H 18.77787 2.54944 -0.87195
H 15.36635 1.35122 -3.62730
H 15.27595 -0.44794 -3.63373
H 17.94651 0.30372 -4.27452
H 16.95902 1.54343 -4.96217
H 14.91968 6.17715 -1.10096
H 14.22240 7.23312 0.08137
H 13.25104 6.84120 -1.35724
H 12.27898 8.04714 0.81341
H 10.45006 8.19628 1.09542
H 11.13934 7.37697 -0.33533
H 9.77603 2.28729 4.45290
H 11.24927 -0.05892 5.53992
H 10.55649 3.10628 6.41485
H 12.20630 3.03212 5.70165
H 11.63382 1.72611 6.60843
H 8.73273 0.11801 5.45334
H 9.38731 -1.41241 4.90170
H 8.19919 0.85841 3.48261
H 7.85906 -0.89255 3.23108
H 9.34232 -0.09868 2.53537
H 12.91322 -5.10160 2.13115
H 12.31005 -4.09802 3.48953
H 14.09158 -4.35574 3.31073
H 16.80984 -2.61495 -0.67491
H 17.42209 -4.47350 -4.51597
H 17.12659 -2.68072 -4.98774
H 15.85745 -3.91435 -4.78857

