%nproc=24
%mem=175gb
#p cam-b3lyp/Def2SVP td=(nstates=5)

TDDFT excited states in gaussian

0 1
Mg 13.14496 1.18645 1.00569
C 13.00367 -1.52752 3.34950
C 11.89461 3.18424 3.47147
C 12.83283 3.48898 -1.15495
C 13.28327 -1.19661 -1.53352
N 12.56481 0.76669 3.09841
C 12.61301 -0.28817 3.89798
C 12.29759 0.01822 5.38667
C 11.42829 1.35235 5.17865
C 12.01798 1.82378 3.85098
C 9.94740 1.07985 4.97359
C 13.59268 0.30154 6.22601
C 13.38857 0.30311 7.74261
H 14.45984 -0.21402 8.58963
N 12.93461 3.14608 1.23845
C 12.42987 3.78840 2.31267
C 12.47174 5.22105 1.98114
C 12.88908 5.36157 0.55959
C 12.88140 3.97324 0.14415
C 12.21150 6.29847 2.99350
C 13.22543 6.54996 -0.28939
O 13.33132 6.45896 -1.56349
C 13.33516 7.84144 0.40455
N 12.85548 1.15844 -1.05289
C 12.80656 2.30119 -1.75975
C 12.86901 2.02784 -3.24359
C 13.21513 0.47244 -3.37972
C 13.20443 0.07916 -1.88620
C 11.59579 2.33643 -4.03103
C 14.45837 0.10018 -4.23321
C 15.71743 0.58018 -3.54781
N 13.33107 -0.96343 0.89875
C 13.34274 -1.76169 -0.26603
C 13.37171 -3.17197 0.17295
C 13.35148 -3.09623 1.57379
C 13.29225 -1.73543 1.97901
C 13.36277 -4.30978 -0.68228
C 13.35603 -3.85836 2.80173
O 13.48396 -5.04884 3.08478
C 13.00336 -2.88090 4.00447
C 13.99578 -3.12542 5.10803
O 15.19970 -2.85916 4.94584
O 13.33188 -3.42621 6.23902
C 14.27306 -3.66646 7.36520
H 11.29557 3.84545 4.09825
H 12.83634 4.24735 -1.94129
H 13.42639 -1.99626 -2.26341
H 11.70557 -0.73658 5.89023
H 11.62562 2.07864 5.96282
H 9.74078 0.02376 4.88346
H 9.67641 1.59747 4.06272
H 9.36391 1.54824 5.77140
H 13.89519 1.34593 6.07606
H 14.37285 -0.38762 5.96711
H 12.42564 -0.13676 8.02939
H 13.32175 1.33940 8.08269
H 11.76769 5.89054 3.91003
H 11.43110 6.94546 2.57847
H 13.09695 6.90247 3.20287
H 12.39619 8.06267 0.90639
H 13.66882 8.55295 -0.35327
H 14.09732 7.75453 1.18697
H 13.65740 2.60545 -3.71038
H 12.39736 -0.08663 -3.85777
H 11.75741 3.05210 -4.85914
H 10.85148 2.71357 -3.34232
H 11.09599 1.46921 -4.45920
H 14.41915 0.60692 -5.20059
H 14.54453 -0.96323 -4.42996
H 15.77829 1.62985 -3.85042
H 16.58147 0.01814 -3.89651
H 15.60519 0.55739 -2.45761
H 14.09104 -5.00398 -0.28451
H 13.59282 -4.03651 -1.70998
H 12.32486 -4.63302 -0.56599
H 11.98168 -3.10080 4.31654
H 14.04641 -4.65983 7.76461
H 14.14522 -2.80705 8.04990
H 15.32498 -3.76968 7.12592

