%nproc=24
%mem=175gb
#p cam-b3lyp/Def2SVP td=(nstates=5)

TDDFT excited states in gaussian

0 1
Mg 0.00000 0.00000 0.00000
C -0.21700 -2.21800 2.80100
C -1.25500 2.44200 2.02600
C -0.24500 1.85000 -2.56400
C 0.14600 -2.82400 -2.03700
N -0.61700 -0.00900 2.12600
C -0.59400 -0.90800 3.10500
C -0.93600 -0.30900 4.50200
C -1.77300 0.96400 4.03200
C -1.15500 1.16800 2.66000
C -3.26300 0.68500 3.86300
C 0.34500 0.11000 5.29900
C 0.12400 0.39700 6.78700
H 1.16800 0.03300 7.73300
N -0.18500 1.96100 -0.15200
C -0.70300 2.80000 0.77700
C -0.62000 4.15600 0.19300
C -0.18700 4.01500 -1.22500
C -0.21400 2.58300 -1.38000
C -0.88700 5.40600 0.97400
C 0.18100 5.01300 -2.27700
O 0.30300 4.69000 -3.50800
C 0.31000 6.41400 -1.83700
N -0.26500 -0.41300 -2.02900
C -0.27900 0.56900 -2.93700
C -0.19600 0.02400 -4.33200
C 0.12400 -1.53300 -4.18000
C 0.08600 -1.63200 -2.63500
C -1.45100 0.20500 -5.19700
C 1.37300 -2.07000 -4.92300
C 2.62600 -1.49000 -4.30600
N 0.15000 -2.14400 0.30300
C 0.17300 -3.13600 -0.68800
C 0.17300 -4.43800 0.00400
C 0.13300 -4.11100 1.35800
C 0.08300 -2.69500 1.50200
C 0.14900 -5.71500 -0.62300
C 0.09600 -4.62900 2.71600
O 0.20800 -5.74700 3.22100
C -0.25500 -3.42800 3.70100
C 0.71700 -3.48200 4.84800
O 1.93100 -3.25500 4.66900
O 0.03800 -3.55600 6.00300
C 0.94300 -3.58300 7.18300
H -1.85900 3.22000 2.49700
H -0.21800 2.45300 -3.47400
H 0.27600 -3.74700 -2.60500
H -1.55400 -0.94900 5.13200
H -1.58500 1.83100 4.66500
H -3.48400 -0.37700 3.96900
H -3.51100 1.02700 2.85800
H -3.85200 1.30100 4.54300
H 0.66900 1.09600 4.96600
H 1.13000 -0.63900 5.18900
H -0.84400 0.02600 7.12500
H 0.06200 1.47700 6.92100
H -1.34400 5.18600 1.93800
H -1.65100 5.96300 0.43200
H 0.00700 6.02000 1.08400
H -0.63500 6.74400 -1.40500
H 0.66500 6.97000 -2.70400
H 1.04800 6.46600 -1.03600
H 0.60800 0.50100 -4.89100
H -0.69200 -2.15600 -4.54700
H -1.26700 0.74000 -6.12900
H -2.20400 0.71400 -4.59600
H -1.96700 -0.72000 -5.45300
H 1.35600 -1.75900 -5.96700
H 1.45200 -3.15700 -4.90200
H 2.71400 -0.52200 -4.79800
H 3.48700 -2.12100 -4.52900
H 2.49500 -1.30300 -3.24000
H 0.86700 -6.33300 -0.08400
H 0.40400 -5.64200 -1.68000
H -0.89100 -5.99900 -0.46300
H -1.28300 -3.58100 4.02800
H 0.69800 -4.47800 7.75500
H 0.83300 -2.61900 7.68000
H 2.00000 -3.75400 6.97600
Mg 31.52690 2.84100 2.38664
C 32.54656 0.16802 0.21995
C 32.75761 5.00259 0.05265
C 31.05307 5.19460 4.46112
C 31.43451 0.51652 4.98162
N 32.50175 2.50750 0.42942
C 32.78035 1.45051 -0.31857
C 33.26612 1.78815 -1.75370
C 33.82537 3.26775 -1.47638
C 32.95364 3.63796 -0.27818
C 35.27907 3.28857 -1.03402
C 32.09168 1.80363 -2.79411
C 32.53116 1.82034 -4.25983
H 31.72493 1.09336 -5.23654
N 31.40053 4.80054 2.09886
C 31.94069 5.51081 1.08643
C 31.57864 6.91373 1.34120
C 30.92101 6.99389 2.67379
C 31.12245 5.63977 3.14904
C 31.79039 8.00486 0.33223
C 30.23678 8.10871 3.40536
O 29.94794 8.01929 4.65092
C 29.99901 9.34374 2.64402
N 31.48431 2.90192 4.46433
C 31.20472 4.04382 5.11689
C 30.95871 3.78718 6.58454
C 30.89312 2.19662 6.73746
C 31.21549 1.78905 5.28303
C 32.00928 4.34745 7.54308
C 29.62176 1.60572 7.40617
C 28.42081 1.82355 6.51418
N 31.73250 0.69746 2.56272
C 31.68502 -0.06953 3.74745
C 31.99136 -1.46582 3.37470
C 32.22025 -1.40988 1.99160
C 32.08719 -0.06972 1.53798
C 32.07690 -2.56692 4.27269
C 32.55462 -2.17806 0.81398
O 32.69897 -3.37526 0.56982
C 32.90507 -1.17025 -0.36411
C 32.16509 -1.61865 -1.59451
O 30.92243 -1.58646 -1.63156
O 33.04538 -1.80402 -2.59506
C 32.35787 -2.23873 -3.84012
H 33.31426 5.75665 -0.50451
H 30.78204 5.95053 5.20179
H 31.32927 -0.28404 5.71696
H 34.06176 1.15347 -2.12505
H 33.62306 3.92995 -2.31419
H 35.66294 2.29353 -0.86465
H 35.29936 3.86306 -0.11718
H 35.88406 3.84773 -1.75350
H 31.57876 2.77255 -2.74070
H 31.42341 0.98145 -2.62658
H 33.59267 1.56946 -4.37475
H 32.45590 2.84458 -4.63301
H 32.44324 7.67543 -0.48549
H 32.35927 8.79642 0.83190
H 30.85236 8.42381 -0.03824
H 30.94768 9.73350 2.28265
H 29.42134 9.98972 3.30800
H 29.40142 9.09940 1.75869
H 30.01182 4.20966 6.89761
H 31.71427 1.81299 7.36067
H 31.58635 5.03173 8.30266
H 32.76985 4.84976 6.96018
H 32.58797 3.59951 8.08243
H 29.41045 2.12585 8.34370
H 29.70623 0.54886 7.63616
H 28.11676 2.84657 6.75514
H 27.63309 1.11138 6.75159
H 28.70779 1.80546 5.45636
H 31.56465 -3.39450 3.80024
H 31.63875 -2.32671 5.23917
H 33.16203 -2.68623 4.33219
H 33.98632 -1.19440 -0.50512
H 32.82750 -3.17616 -4.15377
H 32.42989 -1.38177 -4.53595
H 31.31949 -2.53860 -3.76071

