%nproc=24
%mem=175gb
#p cam-b3lyp/Def2SVP td=(nstates=5)

TDDFT excited states in gaussian

0 1
Mg 8.93486 0.79701 0.68632
C 6.43535 1.98635 2.97040
C 11.20042 1.16039 3.21016
C 11.22893 0.18574 -1.41868
C 6.75230 1.60783 -1.90688
N 8.72366 1.49165 2.77561
C 7.71457 1.85924 3.55082
C 8.08268 2.02684 5.04947
C 9.65545 2.30426 4.88120
C 9.89130 1.57928 3.55777
C 9.98993 3.77386 4.68697
C 7.81506 0.72285 5.88014
C 7.85853 0.90742 7.39863
H 6.94214 0.12297 8.22164
N 10.81384 0.22234 0.96516
C 11.57545 0.43320 2.05913
C 12.88506 -0.16608 1.75922
C 12.88639 -0.60267 0.33651
C 11.62284 -0.05093 -0.10972
C 13.95265 -0.35054 2.79828
C 13.86894 -1.37630 -0.48950
O 13.77562 -1.43588 -1.76643
C 14.99647 -1.98446 0.23182
N 9.07394 1.07786 -1.36895
C 10.16184 0.67633 -2.04951
C 9.92306 0.72853 -3.53970
C 8.36030 1.01974 -3.71446
C 7.96541 1.18112 -2.23007
C 10.72525 1.78039 -4.30551
C 7.55232 0.02323 -4.59013
C 7.48356 -1.32441 -3.90856
N 6.88724 1.46831 0.52928
C 6.17756 1.77235 -0.65309
C 4.85811 2.29751 -0.24606
C 4.90067 2.28404 1.15625
C 6.16537 1.80466 1.59241
C 3.83646 2.75302 -1.12633
C 4.16720 2.57636 2.36674
O 3.01505 2.92462 2.62166
C 5.17429 2.51578 3.59494
C 4.53311 1.69663 4.68140
O 4.31055 0.48493 4.51152
O 4.48820 2.42336 5.81287
C 3.87045 1.64963 6.92262
H 12.02752 1.45139 3.85832
H 11.94475 -0.11329 -2.18787
H 5.97899 1.79073 -2.65603
H 7.60772 2.86640 5.54276
H 10.22658 1.83679 5.67910
H 9.10175 4.37791 4.57563
H 10.59493 3.82194 3.79102
H 10.62932 4.12580 5.50162
H 8.66093 0.03558 5.75013
H 6.88212 0.27553 5.59706
H 7.82392 1.96521 7.68644
H 8.82935 0.56228 7.76250
H 13.72835 0.21605 3.71046
H 14.86375 0.11468 2.40670
H 14.15617 -1.40220 3.01100
H 15.55516 -1.20811 0.74912
H 15.53918 -2.56892 -0.51367
H 14.59848 -2.65297 1.00338
H 10.15723 -0.22235 -4.00241
H 8.17830 1.99200 -4.19554
H 11.34091 1.35270 -5.11922
H 11.34642 2.31623 -3.60014
H 10.13405 2.58075 -4.74723
H 8.05796 -0.13757 -5.54545
H 6.54539 0.36096 -4.81155
H 8.43275 -1.79116 -4.18832
H 6.63693 -1.89855 -4.27952
H 7.47930 -1.21409 -2.81793
H 2.90279 2.35429 -0.75248
H 4.02341 2.43605 -2.15022
H 3.94275 3.83439 -1.00550
H 5.36438 3.54140 3.91362
H 3.03555 2.24669 7.30231
H 4.69386 1.42935 7.62775
H 3.36950 0.72267 6.66915

