%nproc=24
%mem=175gb
#p cam-b3lyp/Def2SVP td=(nstates=5)

TDDFT excited states in gaussian

0 1
Mg 7.88781 0.71654 0.60544
C 8.43952 -1.37743 3.46725
C 5.98931 2.71165 2.61786
C 7.01556 2.32934 -1.98405
C 8.84159 -1.98371 -1.38067
N 7.35782 0.58022 2.74852
C 7.67600 -0.22576 3.75028
C 7.21392 0.27041 5.14665
C 6.00163 1.21346 4.67772
C 6.48911 1.55718 3.27170
C 4.67789 0.47684 4.55752
C 8.32691 1.09149 5.88766
C 8.05940 1.34222 7.37337
H 9.19379 1.35180 8.29291
N 7.09961 2.52905 0.42621
C 6.37775 3.19746 1.35002
C 6.01217 4.47822 0.72539
C 6.43691 4.44287 -0.70046
C 6.85766 3.06095 -0.81598
C 5.39868 5.61250 1.49381
C 6.44891 5.47769 -1.78453
O 6.63741 5.16390 -3.01287
C 6.14080 6.85658 -1.37804
N 7.71773 0.18352 -1.39688
C 7.36861 1.09020 -2.32639
C 7.57926 0.55057 -3.72096
C 8.37358 -0.82482 -3.53398
C 8.40792 -0.88950 -1.99125
C 6.31059 0.29861 -4.53543
C 9.71048 -0.97655 -4.31009
C 10.73856 -0.01424 -3.76019
N 8.70284 -1.25489 0.94788
C 9.00420 -2.23394 -0.02408
C 9.42571 -3.45080 0.69981
C 9.31743 -3.09986 2.05392
C 8.84139 -1.76559 2.16626
C 9.79252 -4.68937 0.10189
C 9.48745 -3.55826 3.41394
O 9.94621 -4.57258 3.93782
C 8.80607 -2.50579 4.39087
C 9.77279 -2.21302 5.50543
O 10.85145 -1.63968 5.27222
O 9.17365 -2.45987 6.68461
C 10.08913 -2.17373 7.82121
H 5.19317 3.27816 3.10171
H 6.83332 2.87692 -2.91164
H 9.24813 -2.83607 -1.92920
H 6.84679 -0.50670 5.80627
H 5.93907 2.10977 5.28933
H 4.79554 -0.58795 4.69367
H 4.31035 0.69276 3.56287
H 3.94517 0.90312 5.24871
H 8.31567 2.12482 5.51774
H 9.28665 0.62799 5.76649
H 7.25591 0.70414 7.76094
H 7.67466 2.35828 7.49005
H 5.05136 5.28737 2.48227
H 4.48321 5.89886 0.96488
H 6.05632 6.48201 1.55820
H 5.15551 6.88611 -0.91892
H 6.28613 7.46450 -2.27313
H 6.85665 7.16221 -0.60684
H 8.18420 1.22839 -4.31062
H 7.78013 -1.68721 -3.87153
H 6.29382 0.84486 -5.49742
H 5.45638 0.56966 -3.92930
H 6.10892 -0.74636 -4.76473
H 9.57006 -0.71338 -5.36136
H 10.11484 -1.98286 -4.28126
H 10.50237 0.92092 -4.27669
H 11.74526 -0.35260 -3.99707
H 10.58622 0.15395 -2.68774
H 10.67294 -5.03879 0.62464
H 9.98068 -4.57613 -0.96373
H 8.89126 -5.27584 0.29954
H 7.88059 -2.95104 4.75806
H 10.14590 -3.08592 8.42318
H 9.68174 -1.27034 8.31281
H 11.13503 -2.00594 7.59234

