%nproc=24
%mem=175gb
#p cam-b3lyp/Def2SVP td=(nstates=5)

TDDFT excited states in gaussian

0 1
Mg 31.52946 2.84319 2.40447
C 29.35120 0.29035 3.67618
C 28.84799 4.95057 2.46180
C 33.30162 4.97980 0.86767
C 33.68511 0.30155 1.38517
N 29.42403 2.54259 3.01199
C 28.72598 1.54702 3.53726
C 27.30084 1.94024 4.01046
C 27.07903 3.22080 3.06715
C 28.53681 3.62501 2.85699
C 26.47945 2.87507 1.71426
C 27.26224 2.33208 5.52934
C 25.85946 2.42786 6.13333
H 25.66913 2.01316 7.52051
N 31.29406 4.80389 2.20746
C 30.13810 5.49628 2.28253
C 30.49625 6.90377 2.04826
C 31.93309 6.96473 1.66555
C 32.23325 5.55234 1.54245
C 29.53557 8.03567 2.27035
C 32.87700 8.10572 1.43450
O 34.01829 7.93319 0.87725
C 32.38773 9.44453 1.79462
N 33.13994 2.66434 1.10189
C 33.76157 3.75376 0.61747
C 35.05311 3.38351 -0.07190
C 35.29091 1.83784 0.26266
C 33.99320 1.54629 1.04774
C 35.08046 3.58614 -1.58669
C 36.64948 1.45961 0.91374
C 36.73122 2.03565 2.30905
N 31.63769 0.70035 2.65860
C 32.61066 -0.17369 2.12619
C 32.19801 -1.54872 2.47466
C 30.99199 -1.37935 3.17130
C 30.66499 0.00219 3.23384
C 32.88299 -2.74116 2.10722
C 29.91573 -2.05592 3.85878
O 29.69570 -3.21836 4.19650
C 28.74075 -1.01456 4.10653
C 28.30029 -1.14337 5.53898
O 29.07074 -0.83994 6.46686
O 26.97873 -1.39377 5.57280
C 26.49261 -1.51888 6.97275
H 28.02680 5.62771 2.22515
H 34.00413 5.68281 0.41408
H 34.35390 -0.53913 1.18857
H 26.53638 1.19776 3.81527
H 26.53695 4.00586 3.58792
H 26.41082 1.80778 1.56488
H 27.13781 3.31849 0.97874
H 25.51286 3.37219 1.59218
H 27.58534 3.37539 5.63829
H 27.86126 1.65931 6.11172
H 25.10050 1.96959 5.48763
H 25.57229 3.48119 6.17855
H 28.50720 7.67291 2.38976
H 29.51141 8.62085 1.34469
H 29.83614 8.68795 3.09306
H 31.48157 9.66081 1.23376
H 33.23464 10.11618 1.64131
H 32.10887 9.44178 2.85426
H 35.88100 3.95984 0.32248
H 35.25681 1.21493 -0.64325
H 35.89879 4.25018 -1.92352
H 34.12076 3.97838 -1.89598
H 35.15656 2.67235 -2.17355
H 37.47549 1.89779 0.34819
H 36.82302 0.38971 0.96054
H 37.06030 3.06407 2.13257
H 37.45507 1.48693 2.90821
H 35.73978 2.08205 2.77439
H 32.89326 -3.37669 2.98272
H 33.89107 -2.52884 1.75728
H 32.23545 -3.09774 1.30173
H 27.93793 -1.25423 3.40824
H 25.99716 -2.49138 7.05320
H 25.87257 -0.62107 7.15504
H 27.23685 -1.59517 7.75680

