%nproc=24
%mem=175gb
#p cam-b3lyp/Def2SVP td=(nstates=5)

TDDFT excited states in gaussian

0 1
Mg 31.53889 2.84371 2.40227
C 31.31805 0.62099 5.21115
C 30.28220 5.28528 4.42565
C 31.29704 4.70255 -0.15774
C 31.67885 0.02406 0.35882
N 30.91964 2.83241 4.52563
C 30.93863 1.94623 5.50984
C 30.60498 2.53110 6.90847
C 29.76032 3.81321 6.43771
C 30.37802 4.01902 5.05613
C 28.27866 3.52580 6.26046
C 31.89118 2.95079 7.70318
C 31.66354 3.24015 9.18851
H 32.71315 2.87802 10.13701
N 31.35609 4.81465 2.25892
C 30.84496 5.65388 3.18397
C 30.91473 6.99797 2.59007
C 31.35633 6.86332 1.17530
C 31.33307 5.42185 1.02795
C 30.65591 8.24977 3.37711
C 31.72469 7.86648 0.12450
O 31.84894 7.53614 -1.10768
C 31.84410 9.26392 0.56540
N 31.28108 2.43270 0.38065
C 31.26133 3.42264 -0.52905
C 31.34252 2.87433 -1.93374
C 31.66597 1.31683 -1.76895
C 31.62578 1.21162 -0.22859
C 30.08677 3.04543 -2.78826
C 32.91628 0.77497 -2.51446
C 34.17198 1.35931 -1.90853
N 31.69248 0.70990 2.70446
C 31.70960 -0.29327 1.71076
C 31.70933 -1.59607 2.40728
C 31.66850 -1.25797 3.76835
C 31.62459 0.15540 3.90961
C 31.69563 -2.87422 1.78097
C 31.64183 -1.77555 5.11746
O 31.74641 -2.89308 5.62137
C 31.28605 -0.58494 6.10855
C 32.25716 -0.63011 7.25634
O 33.46753 -0.41438 7.06906
O 31.57104 -0.70438 8.41137
C 32.49064 -0.74045 9.57964
H 29.68405 6.06010 4.90602
H 31.32484 5.29940 -1.07233
H 31.82059 -0.90035 -0.20514
H 29.99328 1.89205 7.53394
H 29.95693 4.67146 7.07498
H 28.05672 2.47431 6.36654
H 28.03014 3.86626 5.26378
H 27.69034 4.14323 6.94529
H 32.21254 3.94442 7.36529
H 32.66424 2.21541 7.59263
H 30.68940 2.87431 9.53515
H 31.60790 4.32267 9.32661
H 30.19146 8.02715 4.34568
H 29.89244 8.81699 2.83375
H 31.54747 8.87110 3.48545
H 30.90106 9.58747 0.99951
H 32.20077 9.81593 -0.30635
H 32.59251 9.31607 1.36401
H 32.14716 3.34381 -2.48623
H 30.84697 0.68823 -2.14834
H 30.27261 3.59048 -3.73296
H 29.33792 3.55477 -2.19637
H 29.57999 2.11956 -3.05498
H 32.90017 1.09118 -3.56036
H 32.98859 -0.30748 -2.50636
H 34.25421 2.33248 -2.40175
H 35.03231 0.73082 -2.12960
H 34.04244 1.54339 -0.83569
H 32.40650 -3.49039 2.31529
H 31.94596 -2.80204 0.72461
H 30.65103 -3.15664 1.93691
H 30.25627 -0.72926 6.43764
H 32.24205 -1.63802 10.15432
H 32.36582 0.23395 10.08828
H 33.54439 -0.90015 9.38328

