%nproc=24
%mem=175gb
#p cam-b3lyp/Def2SVP td=(nstates=5)

TDDFT excited states in gaussian

0 1
Mg 0.00000 0.00000 0.00000
C -0.21700 -2.21800 2.80100
C -1.25500 2.44200 2.02600
C -0.24500 1.85000 -2.56400
C 0.14600 -2.82400 -2.03700
N -0.61700 -0.00900 2.12600
C -0.59400 -0.90800 3.10500
C -0.93600 -0.30900 4.50200
C -1.77300 0.96400 4.03200
C -1.15500 1.16800 2.66000
C -3.26300 0.68500 3.86300
C 0.34500 0.11000 5.29900
C 0.12400 0.39700 6.78700
H 1.16800 0.03300 7.73300
N -0.18500 1.96100 -0.15200
C -0.70300 2.80000 0.77700
C -0.62000 4.15600 0.19300
C -0.18700 4.01500 -1.22500
C -0.21400 2.58300 -1.38000
C -0.88700 5.40600 0.97400
C 0.18100 5.01300 -2.27700
O 0.30300 4.69000 -3.50800
C 0.31000 6.41400 -1.83700
N -0.26500 -0.41300 -2.02900
C -0.27900 0.56900 -2.93700
C -0.19600 0.02400 -4.33200
C 0.12400 -1.53300 -4.18000
C 0.08600 -1.63200 -2.63500
C -1.45100 0.20500 -5.19700
C 1.37300 -2.07000 -4.92300
C 2.62600 -1.49000 -4.30600
N 0.15000 -2.14400 0.30300
C 0.17300 -3.13600 -0.68800
C 0.17300 -4.43800 0.00400
C 0.13300 -4.11100 1.35800
C 0.08300 -2.69500 1.50200
C 0.14900 -5.71500 -0.62300
C 0.09600 -4.62900 2.71600
O 0.20800 -5.74700 3.22100
C -0.25500 -3.42800 3.70100
C 0.71700 -3.48200 4.84800
O 1.93100 -3.25500 4.66900
O 0.03800 -3.55600 6.00300
C 0.94300 -3.58300 7.18300
H -1.85900 3.22000 2.49700
H -0.21800 2.45300 -3.47400
H 0.27600 -3.74700 -2.60500
H -1.55400 -0.94900 5.13200
H -1.58500 1.83100 4.66500
H -3.48400 -0.37700 3.96900
H -3.51100 1.02700 2.85800
H -3.85200 1.30100 4.54300
H 0.66900 1.09600 4.96600
H 1.13000 -0.63900 5.18900
H -0.84400 0.02600 7.12500
H 0.06200 1.47700 6.92100
H -1.34400 5.18600 1.93800
H -1.65100 5.96300 0.43200
H 0.00700 6.02000 1.08400
H -0.63500 6.74400 -1.40500
H 0.66500 6.97000 -2.70400
H 1.04800 6.46600 -1.03600
H 0.60800 0.50100 -4.89100
H -0.69200 -2.15600 -4.54700
H -1.26700 0.74000 -6.12900
H -2.20400 0.71400 -4.59600
H -1.96700 -0.72000 -5.45300
H 1.35600 -1.75900 -5.96700
H 1.45200 -3.15700 -4.90200
H 2.71400 -0.52200 -4.79800
H 3.48700 -2.12100 -4.52900
H 2.49500 -1.30300 -3.24000
H 0.86700 -6.33300 -0.08400
H 0.40400 -5.64200 -1.68000
H -0.89100 -5.99900 -0.46300
H -1.28300 -3.58100 4.02800
H 0.69800 -4.47800 7.75500
H 0.83300 -2.61900 7.68000
H 2.00000 -3.75400 6.97600
Mg 8.93624 0.81265 0.68492
C 10.30727 -0.82070 3.57135
C 6.49631 2.04410 2.72572
C 7.45325 1.89138 -1.90439
C 10.75975 -1.42059 -1.27292
N 8.55829 0.57256 2.85097
C 9.18132 -0.02097 3.85789
C 8.61064 0.32310 5.25986
C 7.12240 0.73520 4.81917
C 7.40631 1.18040 3.38603
C 6.16118 -0.44089 4.77242
C 9.36346 1.52374 5.93345
C 9.06680 1.71479 7.42249
H 10.14443 2.17619 8.29329
N 7.52959 2.19963 0.49467
C 6.63989 2.59012 1.43128
C 5.80880 3.62166 0.79145
C 6.17380 3.69084 -0.64963
C 7.07136 2.55743 -0.74892
C 4.84315 4.47893 1.55697
C 5.77052 4.61536 -1.75815
O 6.02477 4.34644 -2.98529
C 4.98739 5.79848 -1.37287
N 8.91522 0.17862 -1.29496
C 8.22843 0.85707 -2.23088
C 8.58167 0.38016 -3.61946
C 9.83285 -0.59817 -3.43239
C 9.93472 -0.58688 -1.89133
C 7.47192 -0.35184 -4.37380
C 11.10750 -0.27667 -4.25979
C 11.72362 1.01666 -3.77698
N 10.43136 -0.70588 1.04093
C 11.04371 -1.54155 0.08137
C 11.90611 -2.48936 0.81646
C 11.71642 -2.15161 2.16495
C 10.78499 -1.08295 2.26454
C 12.68624 -3.52781 0.23409
C 12.08421 -2.46313 3.52745
O 12.90046 -3.21668 4.05626
C 11.09191 -1.69891 4.50607
C 11.91508 -1.02869 5.57177
O 12.69838 -0.10794 5.27976
O 11.48491 -1.43363 6.78063
C 12.26359 -0.78759 7.87064
H 5.56210 2.29583 3.22848
H 7.05410 2.29771 -2.83662
H 11.43568 -2.08372 -1.81703
H 8.57622 -0.50886 5.95299
H 6.75165 1.56817 5.41083
H 6.66763 -1.38163 4.92944
H 5.71035 -0.41344 3.78903
H 5.34384 -0.28820 5.48303
H 8.96048 2.46551 5.53924
H 10.42244 1.44173 5.78359
H 8.56760 0.84105 7.85875
H 8.33778 2.52159 7.53035
H 4.67009 4.08668 2.56672
H 3.87126 4.38790 1.05996
H 5.13491 5.53121 1.57260
H 4.07499 5.48078 -0.87382
H 4.87121 6.38266 -2.28781
H 5.56253 6.37524 -0.63995
H 8.87573 1.21006 -4.25025
H 9.58992 -1.63062 -3.72371
H 7.22594 0.11284 -5.34727
H 6.59651 -0.39132 -3.73927
H 7.66354 -1.40560 -4.56892
H 10.84851 -0.12388 -5.31037
H 11.85548 -1.06165 -4.22337
H 11.14354 1.77886 -4.30579
H 12.77655 1.06379 -4.04742
H 11.55205 1.15768 -2.70351
H 13.64865 -3.50851 0.72794
H 12.78738 -3.39393 -0.84090
H 12.07151 -4.39682 0.48349
H 10.40761 -2.43919 4.92237
H 12.67108 -1.59123 8.49177
H 11.56634 -0.07952 8.35668
H 13.16632 -0.25550 7.59422

