%nproc=24
%mem=175gb
#p cam-b3lyp/Def2SVP td=(nstates=5)

TDDFT excited states in gaussian

0 1
Mg 31.53370 2.83159 2.40301
C 28.97794 3.87398 4.69660
C 33.78688 3.35065 4.91066
C 33.84912 2.35417 0.28680
C 29.28906 3.48921 -0.18056
N 31.29165 3.52309 4.48999
C 30.26605 3.83077 5.26962
C 30.63180 4.02946 6.76505
C 32.18296 4.40430 6.58547
C 32.45609 3.68830 5.26433
C 32.42316 5.89094 6.38160
C 30.45170 2.71583 7.60407
C 30.49250 2.91115 9.12129
H 29.63220 2.07517 9.95406
N 33.44674 2.37776 2.67298
C 34.20006 2.64214 3.76104
C 35.54297 2.12475 3.45599
C 35.56331 1.68126 2.03556
C 34.26492 2.14998 1.59446
C 36.62622 2.01354 4.48926
C 36.58766 0.96640 1.20738
O 36.49068 0.89402 -0.06862
C 37.75550 0.43434 1.92471
N 31.64260 3.10927 0.34549
C 32.74954 2.77320 -0.33983
C 32.49909 2.80205 -1.82873
C 30.92009 2.99344 -1.99516
C 30.52467 3.13785 -0.50917
C 33.22894 3.89803 -2.60497
C 30.17122 1.94326 -2.86061
C 30.19145 0.59776 -2.17170
N 29.44700 3.37191 2.25539
C 28.71258 3.62418 1.07596
C 27.36514 4.06757 1.48856
C 27.41681 4.06455 2.89064
C 28.71173 3.66806 3.32129
C 26.31164 4.45306 0.61240
C 26.67361 4.31684 4.10419
O 25.50336 4.59336 4.36455
C 27.68981 4.32650 5.32633
C 27.10791 3.47465 6.42099
O 26.96102 2.25044 6.25874
O 27.02409 4.20336 7.54897
C 26.46286 3.39845 8.66655
H 34.59787 3.69666 5.55211
H 34.57775 2.09651 -0.48533
H 28.50133 3.61898 -0.92577
H 30.10789 4.84019 7.25699
H 32.78711 3.97809 7.38216
H 31.49808 6.43731 6.27275
H 33.01859 5.97201 5.48164
H 33.04396 6.28688 7.19040
H 31.33835 2.08240 7.47228
H 29.54708 2.20917 7.32916
H 30.39311 3.96624 9.40388
H 31.48526 2.62976 9.48082
H 36.37214 2.56993 5.39991
H 37.50390 2.53296 4.08958
H 36.89677 0.97794 4.70609
H 38.26730 1.24714 2.43450
H 38.32946 -0.11894 1.17884
H 37.40495 -0.25360 2.70219
H 32.78987 1.86524 -2.28802
H 30.67443 3.94965 -2.48008
H 33.86544 3.50542 -3.42032
H 33.81935 4.47576 -1.90627
H 32.58594 4.65717 -3.04706
H 30.68028 1.80931 -3.81825
H 29.14374 2.21577 -3.07743
H 31.16644 0.19008 -2.45503
H 29.38042 -0.03053 -2.53439
H 30.18674 0.71361 -1.08166
H 25.40714 3.99848 0.99416
H 26.51207 4.14283 -0.41100
H 26.35039 5.53963 0.72701
H 27.81687 5.36378 5.63854
H 25.59432 3.94391 9.04840
H 27.30268 3.23428 9.36761
H 26.01973 2.44044 8.42100

