%nproc=24
%mem=175gb
#p cam-b3lyp/Def2SVP td=(nstates=5)

TDDFT excited states in gaussian

0 1
Mg 15.75935 1.42324 1.20471
C 13.39111 -1.26847 1.36338
C 13.19628 3.41852 0.16349
C 17.89618 3.69548 0.62305
C 18.27994 -0.98265 1.14138
N 13.61535 1.01267 0.84843
C 12.81614 -0.03242 1.00143
C 11.30575 0.28248 0.83074
C 11.43578 1.59472 -0.08576
C 12.82005 2.06519 0.35596
C 11.48789 1.28727 -1.57308
C 10.60394 0.60328 2.19696
C 9.07453 0.61621 2.14685
H 8.33591 0.13191 3.30977
N 15.52259 3.38005 0.97359
C 14.40816 4.02223 0.56502
C 14.75394 5.45190 0.54006
C 16.21149 5.58674 0.80856
C 16.61264 4.19431 0.79116
C 13.72932 6.53383 0.35837
C 17.09982 6.77334 1.02997
O 18.37732 6.67136 1.00891
C 16.43112 8.07414 1.17919
N 17.77784 1.36722 0.70983
C 18.48548 2.50112 0.56344
C 19.96574 2.21369 0.48224
C 20.12341 0.66502 0.84878
C 18.63329 0.28727 0.99786
C 20.62298 2.48566 -0.87070
C 21.09509 0.31153 2.00790
C 20.54440 0.82653 3.31821
N 15.86695 -0.72298 1.42881
C 17.02037 -1.53296 1.34144
C 16.57502 -2.93756 1.44717
C 15.17998 -2.84761 1.56657
C 14.78200 -1.48428 1.51701
C 17.41562 -4.08420 1.37837
C 13.95258 -3.59653 1.71257
O 13.67417 -4.78084 1.89591
C 12.72840 -2.61458 1.46045
C 11.72883 -2.82543 2.56450
O 12.01402 -2.53421 3.73943
O 10.53411 -3.12900 2.02518
C 9.50688 -3.33648 3.08044
H 12.51762 4.07279 -0.38444
H 18.68503 4.44546 0.52969
H 19.01398 -1.78655 1.22864
H 10.73877 -0.47995 0.31015
H 10.68154 2.33340 0.17277
H 11.54802 0.22597 -1.76323
H 12.37092 1.78916 -1.94645
H 10.63907 1.75093 -2.08382
H 10.79223 1.65249 2.45855
H 10.93470 -0.07106 2.96279
H 8.68833 0.15811 1.22820
H 8.73794 1.65427 2.09070
H 12.76933 6.12578 0.01881
H 14.06865 7.15894 -0.47467
H 13.61546 7.15951 1.24619
H 15.83879 8.27971 0.29075
H 17.22459 8.78490 1.41816
H 15.72905 8.01239 2.01818
H 20.51453 2.80374 1.20596
H 20.51177 0.08294 0.00014
H 21.46902 3.19602 -0.81003
H 19.86570 2.85338 -1.55029
H 20.99133 1.60311 -1.39092
H 22.05768 0.80710 1.85960
H 21.29083 -0.75172 2.09838
H 20.86020 1.87406 3.32393
H 20.97401 0.28019 4.15546
H 19.44829 0.81269 3.31704
H 17.08781 -4.75784 2.15892
H 18.46351 -3.81667 1.49722
H 17.19240 -4.42917 0.36524
H 12.31290 -2.85383 0.48082
H 9.07848 -4.33039 2.91828
H 8.81983 -2.47298 3.00243
H 9.85038 -3.41881 4.10498

