%nproc=24
%mem=175gb
#p cam-b3lyp/Def2SVP td=(nstates=5)

TDDFT excited states in gaussian

0 1
Mg 8.94124 0.80773 0.67150
C 11.68771 -1.41413 1.30339
C 11.04473 3.38337 1.43047
C 6.43745 2.75364 0.56247
C 6.81725 -1.92479 1.08103
N 11.06905 0.85201 1.27378
C 12.02745 -0.05026 1.42115
C 13.44516 0.54584 1.63166
C 13.01885 1.97916 2.21709
C 11.63804 2.10400 1.57643
C 12.84718 1.98566 3.72700
C 14.23958 0.68817 0.28606
C 15.73457 0.97151 0.44875
H 16.66267 0.38744 -0.51560
N 8.85568 2.78064 0.47432
C 9.80889 3.67427 0.81207
C 9.25282 4.99726 0.48856
C 7.83078 4.82272 0.08601
C 7.64273 3.41729 0.38518
C 10.07749 6.25154 0.50023
C 6.80557 5.76769 -0.46369
O 5.56341 5.45640 -0.51798
C 7.28491 7.10283 -0.84987
N 6.91122 0.51374 1.01050
C 6.03025 1.51575 0.84376
C 4.60985 1.00396 0.87407
C 4.72730 -0.59084 0.85401
C 6.26436 -0.73209 0.90802
C 3.77216 1.43722 2.07696
C 3.95519 -1.33935 -0.26681
C 4.56587 -1.02405 -1.61330
N 9.18122 -1.32410 0.92794
C 8.15928 -2.28211 1.10668
C 8.81845 -3.58092 1.35370
C 10.18890 -3.28179 1.32416
C 10.37069 -1.89091 1.09631
C 8.15621 -4.81373 1.61398
C 11.52294 -3.82452 1.44449
O 11.99389 -4.95588 1.55385
C 12.55072 -2.61780 1.56230
C 13.68776 -2.88180 0.61363
O 13.49553 -2.89595 -0.61497
O 14.84649 -2.85778 1.29710
C 16.00473 -3.10362 0.39717
H 11.55243 4.24364 1.86757
H 5.53999 3.36104 0.42429
H 6.22595 -2.84210 1.12083
H 14.05782 0.01723 2.35207
H 13.67842 2.76471 1.85759
H 12.92537 0.99331 4.14565
H 11.86292 2.39677 3.90939
H 13.55469 2.68357 4.18383
H 13.92712 1.61163 -0.21826
H 14.10104 -0.17782 -0.33161
H 16.07964 0.78850 1.47363
H 15.90390 2.04012 0.29573
H 11.04358 6.09317 0.99519
H 9.55754 6.97011 1.14302
H 10.19522 6.68749 -0.49413
H 7.73672 7.58765 0.01226
H 6.42595 7.60210 -1.30242
H 8.07774 6.98724 -1.59732
H 4.06353 1.32715 -0.00353
H 4.33777 -1.03976 1.77952
H 2.84167 1.96448 1.79368
H 4.38518 2.06252 2.71237
H 3.48392 0.63362 2.75249
H 2.91889 -0.99500 -0.30772
H 3.93184 -2.41542 -0.13070
H 4.09978 -0.07035 -1.87844
H 4.31910 -1.79857 -2.33668
H 5.64466 -0.85052 -1.52526
H 8.66622 -5.57000 1.03221
H 7.10007 -4.75942 1.35828
H 8.31369 -4.89576 2.69274
H 12.88506 -2.57231 2.59947
H 16.55593 -3.95376 0.81083
H 16.54199 -2.13885 0.33140
H 15.79419 -3.45590 -0.60583

