%nproc=24
%mem=175gb
#p cam-b3lyp/Def2SVP td=(nstates=5)

TDDFT excited states in gaussian

0 1
Mg 0.00000 0.00000 0.00000
C -0.21700 -2.21800 2.80100
C -1.25500 2.44200 2.02600
C -0.24500 1.85000 -2.56400
C 0.14600 -2.82400 -2.03700
N -0.61700 -0.00900 2.12600
C -0.59400 -0.90800 3.10500
C -0.93600 -0.30900 4.50200
C -1.77300 0.96400 4.03200
C -1.15500 1.16800 2.66000
C -3.26300 0.68500 3.86300
C 0.34500 0.11000 5.29900
C 0.12400 0.39700 6.78700
H 1.16800 0.03300 7.73300
N -0.18500 1.96100 -0.15200
C -0.70300 2.80000 0.77700
C -0.62000 4.15600 0.19300
C -0.18700 4.01500 -1.22500
C -0.21400 2.58300 -1.38000
C -0.88700 5.40600 0.97400
C 0.18100 5.01300 -2.27700
O 0.30300 4.69000 -3.50800
C 0.31000 6.41400 -1.83700
N -0.26500 -0.41300 -2.02900
C -0.27900 0.56900 -2.93700
C -0.19600 0.02400 -4.33200
C 0.12400 -1.53300 -4.18000
C 0.08600 -1.63200 -2.63500
C -1.45100 0.20500 -5.19700
C 1.37300 -2.07000 -4.92300
C 2.62600 -1.49000 -4.30600
N 0.15000 -2.14400 0.30300
C 0.17300 -3.13600 -0.68800
C 0.17300 -4.43800 0.00400
C 0.13300 -4.11100 1.35800
C 0.08300 -2.69500 1.50200
C 0.14900 -5.71500 -0.62300
C 0.09600 -4.62900 2.71600
O 0.20800 -5.74700 3.22100
C -0.25500 -3.42800 3.70100
C 0.71700 -3.48200 4.84800
O 1.93100 -3.25500 4.66900
O 0.03800 -3.55600 6.00300
C 0.94300 -3.58300 7.18300
H -1.85900 3.22000 2.49700
H -0.21800 2.45300 -3.47400
H 0.27600 -3.74700 -2.60500
H -1.55400 -0.94900 5.13200
H -1.58500 1.83100 4.66500
H -3.48400 -0.37700 3.96900
H -3.51100 1.02700 2.85800
H -3.85200 1.30100 4.54300
H 0.66900 1.09600 4.96600
H 1.13000 -0.63900 5.18900
H -0.84400 0.02600 7.12500
H 0.06200 1.47700 6.92100
H -1.34400 5.18600 1.93800
H -1.65100 5.96300 0.43200
H 0.00700 6.02000 1.08400
H -0.63500 6.74400 -1.40500
H 0.66500 6.97000 -2.70400
H 1.04800 6.46600 -1.03600
H 0.60800 0.50100 -4.89100
H -0.69200 -2.15600 -4.54700
H -1.26700 0.74000 -6.12900
H -2.20400 0.71400 -4.59600
H -1.96700 -0.72000 -5.45300
H 1.35600 -1.75900 -5.96700
H 1.45200 -3.15700 -4.90200
H 2.71400 -0.52200 -4.79800
H 3.48700 -2.12100 -4.52900
H 2.49500 -1.30300 -3.24000
H 0.86700 -6.33300 -0.08400
H 0.40400 -5.64200 -1.68000
H -0.89100 -5.99900 -0.46300
H -1.28300 -3.58100 4.02800
H 0.69800 -4.47800 7.75500
H 0.83300 -2.61900 7.68000
H 2.00000 -3.75400 6.97600
Mg 10.50933 0.95493 0.80435
C 12.54201 0.19304 3.66211
C 7.84676 1.12246 2.92974
C 8.62223 1.18140 -1.73632
C 13.04547 -0.37655 -1.18080
N 10.34259 0.67545 2.99212
C 11.19262 0.44979 3.98251
C 10.57678 0.58160 5.40129
C 9.04131 0.30086 5.02396
C 9.05992 0.75898 3.56710
C 8.67343 -1.17323 5.05645
C 10.76678 2.01767 6.00431
C 10.46679 2.13172 7.50055
H 11.27255 3.04679 8.30421
N 8.63960 1.60139 0.64687
C 7.70015 1.61830 1.61559
C 6.48730 2.16798 0.99028
C 6.73950 2.32038 -0.46845
C 8.03126 1.67336 -0.58164
C 5.27416 2.56668 1.77942
C 5.94329 2.93408 -1.58004
O 6.24695 2.74349 -2.81061
C 4.74325 3.68770 -1.18832
N 10.69505 0.28305 -1.15433
C 9.75351 0.56156 -2.07295
C 10.23005 0.21777 -3.46403
C 11.78467 -0.12563 -3.31299
C 11.92330 -0.00212 -1.77972
C 9.51471 -0.95025 -4.14256
C 12.77156 0.66973 -4.21083
C 12.79207 2.12273 -3.79401
N 12.52070 0.23474 1.12648
C 13.39889 -0.30358 0.16053
C 14.60745 -0.75993 0.87715
C 14.33679 -0.47416 2.22384
C 13.04210 0.09994 2.34074
C 15.73643 -1.39303 0.28493
C 14.84761 -0.53738 3.57431
O 15.92463 -0.84716 4.08206
C 13.65725 -0.22444 4.58003
C 14.15040 0.77995 5.58528
O 14.45525 1.93217 5.23023
O 13.97495 0.28581 6.82440
C 14.43904 1.25051 7.85677
H 6.91186 0.97532 3.47123
H 8.05694 1.33649 -2.65820
H 13.92129 -0.71302 -1.73974
H 10.92410 -0.15352 6.11735
H 8.37030 0.92284 5.61071
H 9.53804 -1.80089 5.21337
H 8.22152 -1.38487 4.09623
H 7.89337 -1.35073 5.80233
H 9.98730 2.67952 5.60542
H 11.75371 2.38732 5.80443
H 10.40340 1.14942 7.98429
H 9.46710 2.55565 7.62271
H 5.31898 2.18436 2.80666
H 4.41825 2.04833 1.33378
H 5.08895 3.64261 1.75233
H 4.07112 3.03501 -0.63634
H 4.35827 4.12473 -2.11172
H 5.04110 4.48698 -0.50053
H 10.12031 1.06434 -4.13065
H 11.99634 -1.17537 -3.56411
H 9.06152 -0.67911 -5.11476
H 8.76170 -1.32960 -3.46461
H 10.13136 -1.83000 -4.31859
H 12.43723 0.64993 -5.25102
H 13.78388 0.28014 -4.19047
H 11.92477 2.54081 -4.31370
H 13.71437 2.60106 -4.11745
H 12.61263 2.22593 -2.71753
H 16.61431 -0.94368 0.72979
H 15.73479 -1.27779 -0.79696
H 15.56038 -2.42870 0.58769
H 13.36893 -1.16577 5.04943
H 15.17117 0.72572 8.47829
H 13.52283 1.61588 8.35758
H 15.01831 2.10297 7.52180

