%nproc=24
%mem=175gb
#p cam-b3lyp/Def2SVP td=(nstates=5)

TDDFT excited states in gaussian

0 1
Mg 15.77239 1.41558 1.20543
C 13.30179 0.62280 3.68468
C 17.16023 3.54130 3.48356
C 17.68837 2.46974 -1.09353
C 13.57948 0.14393 -1.18617
N 15.21275 1.92886 3.28284
C 14.29116 1.51849 4.14110
C 14.48524 2.03852 5.59074
C 15.34569 3.35378 5.26121
C 15.97804 2.90855 3.94417
C 14.49033 4.58018 4.98983
C 15.29307 1.03239 6.48356
C 15.25459 1.33014 7.98410
H 15.24056 0.20639 8.91655
N 17.48403 2.41378 1.31716
C 17.89653 3.21153 2.32449
C 19.21304 3.72611 1.91686
C 19.47050 3.29798 0.51503
C 18.18723 2.71545 0.17742
C 20.12048 4.47150 2.85194
C 20.66866 3.40766 -0.37860
O 20.59245 3.18123 -1.63786
C 21.91271 3.87843 0.24768
N 15.57120 1.51790 -0.86130
C 16.57542 1.97109 -1.63206
C 16.30906 1.69552 -3.09272
C 15.02454 0.74333 -3.12301
C 14.70311 0.70390 -1.61287
C 16.05236 2.92390 -3.96540
C 15.16453 -0.60332 -3.88433
C 16.13309 -1.50862 -3.15788
N 13.88067 0.37208 1.22834
C 13.12316 -0.04525 0.11205
C 11.85885 -0.60758 0.62949
C 11.95944 -0.45619 2.02069
C 13.19014 0.17556 2.34593
C 10.79151 -1.12021 -0.16052
C 11.29970 -0.67750 3.28736
O 10.27193 -1.25300 3.64264
C 12.08370 0.12589 4.41266
C 12.29399 -0.79737 5.58138
O 13.02094 -1.80042 5.47165
O 11.78190 -0.23009 6.68877
C 11.97595 -1.10322 7.87696
H 17.53908 4.39998 4.03855
H 18.36044 2.71448 -1.91930
H 12.88631 -0.36208 -1.86154
H 13.56977 2.31150 6.10180
H 16.11145 3.52360 6.01364
H 13.43911 4.33675 4.94708
H 14.82758 4.96929 4.03804
H 14.70417 5.35952 5.72687
H 16.36570 1.16606 6.29293
H 14.97254 0.02409 6.30690
H 14.47030 2.05251 8.24102
H 16.18389 1.83335 8.26197
H 19.59369 4.77915 3.76367
H 20.38334 5.41376 2.35907
H 21.03734 3.92221 3.07625
H 21.74820 4.86093 0.68367
H 22.67667 3.80517 -0.52877
H 22.16454 3.20526 1.07475
H 17.14334 1.17472 -3.54641
H 14.16858 1.22932 -3.61390
H 16.74836 3.00413 -4.82169
H 16.11453 3.80524 -3.34098
H 15.04523 2.99932 -4.37187
H 15.58425 -0.43417 -4.87901
H 14.22235 -1.12461 -4.01673
H 17.10822 -1.16352 -3.51439
H 15.96017 -2.54882 -3.42645
H 16.09756 -1.33568 -2.07599
H 10.46388 -2.03518 0.31488
H 11.10543 -1.29519 -1.18746
H 10.07853 -0.29492 -0.08419
H 11.47725 0.99230 4.67934
H 10.98775 -1.26731 8.31767
H 12.72864 -0.59038 8.50482
H 12.30151 -2.12204 7.70245

