%nproc=24
%mem=175gb
#p cam-b3lyp/Def2SVP td=(nstates=5)

TDDFT excited states in gaussian

0 1
Mg 0.00000 0.00000 0.00000
C -0.21700 -2.21800 2.80100
C -1.25500 2.44200 2.02600
C -0.24500 1.85000 -2.56400
C 0.14600 -2.82400 -2.03700
N -0.61700 -0.00900 2.12600
C -0.59400 -0.90800 3.10500
C -0.93600 -0.30900 4.50200
C -1.77300 0.96400 4.03200
C -1.15500 1.16800 2.66000
C -3.26300 0.68500 3.86300
C 0.34500 0.11000 5.29900
C 0.12400 0.39700 6.78700
H 1.16800 0.03300 7.73300
N -0.18500 1.96100 -0.15200
C -0.70300 2.80000 0.77700
C -0.62000 4.15600 0.19300
C -0.18700 4.01500 -1.22500
C -0.21400 2.58300 -1.38000
C -0.88700 5.40600 0.97400
C 0.18100 5.01300 -2.27700
O 0.30300 4.69000 -3.50800
C 0.31000 6.41400 -1.83700
N -0.26500 -0.41300 -2.02900
C -0.27900 0.56900 -2.93700
C -0.19600 0.02400 -4.33200
C 0.12400 -1.53300 -4.18000
C 0.08600 -1.63200 -2.63500
C -1.45100 0.20500 -5.19700
C 1.37300 -2.07000 -4.92300
C 2.62600 -1.49000 -4.30600
N 0.15000 -2.14400 0.30300
C 0.17300 -3.13600 -0.68800
C 0.17300 -4.43800 0.00400
C 0.13300 -4.11100 1.35800
C 0.08300 -2.69500 1.50200
C 0.14900 -5.71500 -0.62300
C 0.09600 -4.62900 2.71600
O 0.20800 -5.74700 3.22100
C -0.25500 -3.42800 3.70100
C 0.71700 -3.48200 4.84800
O 1.93100 -3.25500 4.66900
O 0.03800 -3.55600 6.00300
C 0.94300 -3.58300 7.18300
H -1.85900 3.22000 2.49700
H -0.21800 2.45300 -3.47400
H 0.27600 -3.74700 -2.60500
H -1.55400 -0.94900 5.13200
H -1.58500 1.83100 4.66500
H -3.48400 -0.37700 3.96900
H -3.51100 1.02700 2.85800
H -3.85200 1.30100 4.54300
H 0.66900 1.09600 4.96600
H 1.13000 -0.63900 5.18900
H -0.84400 0.02600 7.12500
H 0.06200 1.47700 6.92100
H -1.34400 5.18600 1.93800
H -1.65100 5.96300 0.43200
H 0.00700 6.02000 1.08400
H -0.63500 6.74400 -1.40500
H 0.66500 6.97000 -2.70400
H 1.04800 6.46600 -1.03600
H 0.60800 0.50100 -4.89100
H -0.69200 -2.15600 -4.54700
H -1.26700 0.74000 -6.12900
H -2.20400 0.71400 -4.59600
H -1.96700 -0.72000 -5.45300
H 1.35600 -1.75900 -5.96700
H 1.45200 -3.15700 -4.90200
H 2.71400 -0.52200 -4.79800
H 3.48700 -2.12100 -4.52900
H 2.49500 -1.30300 -3.24000
H 0.86700 -6.33300 -0.08400
H 0.40400 -5.64200 -1.68000
H -0.89100 -5.99900 -0.46300
H -1.28300 -3.58100 4.02800
H 0.69800 -4.47800 7.75500
H 0.83300 -2.61900 7.68000
H 2.00000 -3.75400 6.97600
Mg 7.87696 0.71190 0.59050
C 8.74022 -1.97888 -1.62163
C 8.97323 2.85318 -1.82770
C 7.55047 3.07897 2.67804
C 7.93204 -1.59911 3.19855
N 8.72459 0.36185 -1.42227
C 8.94843 -0.70075 -2.18063
C 9.34533 -0.37363 -3.64521
C 9.93095 1.10329 -3.41149
C 9.13879 1.48558 -2.16289
C 11.40968 1.11592 -3.06143
C 8.10795 -0.35489 -4.60987
C 8.45454 -0.34851 -6.10036
H 7.58359 -1.07450 -7.02061
N 7.74609 2.67085 0.30076
C 8.22637 3.37228 -0.74739
C 7.89060 4.77897 -0.47788
C 7.31859 4.87036 0.89294
C 7.54028 3.51718 1.36183
C 8.04594 5.86360 -1.50398
C 6.68928 5.99360 1.66008
O 6.47870 5.91236 2.92178
C 6.41255 7.22655 0.90857
N 7.96546 0.78332 2.66641
C 7.73520 1.93037 3.32913
C 7.58019 1.68270 4.81069
C 7.51352 0.09341 4.97593
C 7.74106 -0.32358 3.50632
C 8.69271 2.24017 5.69833
C 6.28271 -0.48512 5.72632
C 5.02958 -0.26312 4.91038
N 8.07863 -1.43217 0.76479
C 8.10049 -2.19297 1.95423
C 8.37330 -3.59322 1.57045
C 8.51518 -3.54570 0.17543
C 8.36300 -2.20687 -0.27610
C 8.50761 -4.69048 2.46717
C 8.76964 -4.32202 -1.01675
O 8.89022 -5.52140 -1.26308
C 9.05220 -3.32252 -2.21990
C 8.23332 -3.77168 -3.39897
O 6.99104 -3.73081 -3.35807
O 9.04771 -3.96822 -4.45183
C 8.28036 -4.40413 -5.64890
H 9.49887 3.60051 -2.42275
H 7.33167 3.84044 3.43022
H 7.86778 -2.39527 3.94332
H 10.11172 -1.01578 -4.06241
H 9.68089 1.76279 -4.23847
H 11.79666 0.11902 -2.91119
H 11.49147 1.69475 -2.15076
H 11.97205 1.66722 -3.82047
H 7.60600 0.61791 -4.52952
H 7.44595 -1.17146 -4.39630
H 9.50500 -0.60750 -6.28039
H 8.36295 0.67441 -6.47356
H 8.64385 5.52551 -2.35932
H 8.65047 6.65353 -1.04527
H 7.08935 6.28740 -1.81703
H 7.33926 7.60776 0.48626
H 5.88215 7.87988 1.60407
H 5.75885 6.98213 0.06386
H 6.65774 2.11344 5.18035
H 8.36958 -0.29299 5.54837
H 8.32302 2.93116 6.47931
H 9.41854 2.73417 5.06614
H 9.29905 1.49078 6.20426
H 6.13428 0.04109 6.67248
H 6.37427 -1.54142 5.95620
H 4.74823 0.76321 5.16449
H 4.25351 -0.96848 5.20061
H 5.24937 -0.28845 3.83674
H 7.96106 -5.51670 2.03226
H 8.13271 -4.44242 3.45797
H 9.59349 -4.81723 2.45903
H 10.12227 -3.35507 -2.42841
H 8.72296 -5.34641 -5.98642
H 8.31434 -3.55113 -6.35246
H 7.24701 -4.69620 -5.50283

