%nproc=24
%mem=175gb
#p cam-b3lyp/Def2SVP td=(nstates=5)

TDDFT excited states in gaussian

0 1
Mg 8.94298 0.80816 0.67409
C 11.44318 -1.34790 2.08104
C 10.60930 3.42180 2.09777
C 6.52259 2.67983 -0.16612
C 6.90248 -1.99866 0.35183
N 10.77763 0.89833 1.90623
C 11.67753 0.02138 2.32515
C 12.93713 0.65339 2.97595
C 12.29642 2.05453 3.42891
C 11.17708 2.15710 2.39487
C 11.66694 2.00953 4.81132
C 14.10206 0.86087 1.94546
C 15.46183 1.18421 2.56853
H 16.66391 0.65833 1.92749
N 8.84704 2.78269 0.49920
C 9.61452 3.69399 1.13307
C 9.13527 5.00884 0.67957
C 7.91471 4.80376 -0.14680
C 7.69741 3.38478 0.05159
C 9.86744 6.28655 0.97077
C 7.07387 5.73369 -0.96804
O 5.92199 5.38675 -1.41034
C 7.59755 7.09393 -1.16036
N 6.92026 0.44262 0.36213
C 6.09612 1.42214 -0.04926
C 4.75640 0.86691 -0.47028
C 4.93524 -0.72224 -0.48456
C 6.38478 -0.81849 0.03980
C 3.57238 1.23754 0.42253
C 4.57603 -1.45906 -1.80393
C 5.55999 -1.08429 -2.88872
N 9.17346 -1.32229 0.94997
C 8.18370 -2.31582 0.78458
C 8.78362 -3.60105 1.19776
C 10.08377 -3.25981 1.59984
C 10.27365 -1.85774 1.46703
C 8.12106 -4.86073 1.21579
C 11.33525 -3.76536 2.11646
O 11.79237 -4.88477 2.34381
C 12.22952 -2.53226 2.57050
C 13.61308 -2.73252 2.01538
O 13.81017 -2.71481 0.78760
O 14.50245 -2.69441 3.02432
C 15.89043 -2.87738 2.52246
H 10.92398 4.28323 2.68751
H 5.68905 3.26374 -0.56328
H 6.36333 -2.93423 0.18846
H 13.31726 0.12172 3.84002
H 13.00419 2.87033 3.30687
H 11.64999 1.00763 5.21388
H 10.65947 2.38488 4.68816
H 12.17164 2.71420 5.47845
H 13.92544 1.78948 1.38757
H 14.19418 0.01044 1.29823
H 15.48044 0.98039 3.64605
H 15.62911 2.26164 2.49663
H 10.63889 6.14239 1.73725
H 9.14738 6.96901 1.43513
H 10.26959 6.75615 0.07054
H 7.74229 7.56555 -0.19129
H 6.90179 7.58062 -1.84660
H 8.58620 7.02536 -1.62779
H 4.49571 1.20018 -1.46732
H 4.29652 -1.21090 0.26583
H 2.75531 1.74483 -0.12438
H 3.93493 1.86133 1.22875
H 3.12066 0.40525 0.95961
H 3.59059 -1.14514 -2.15680
H 4.55300 -2.53901 -1.70306
H 5.16237 -0.13745 -3.26618
H 5.57838 -1.84338 -3.66813
H 6.55145 -0.88097 -2.46763
H 8.81428 -5.58303 0.80563
H 7.19415 -4.83060 0.64684
H 7.94087 -4.97100 2.28847
H 12.22539 -2.50849 3.66091
H 16.31913 -3.72274 3.06951
H 16.38443 -1.89523 2.64535
H 16.01342 -3.20495 1.49678

