%nproc=24
%mem=175gb
#p cam-b3lyp/Def2SVP td=(nstates=5)

TDDFT excited states in gaussian

0 1
Mg 8.94087 0.80460 0.68693
C 8.97149 -2.65273 1.64869
C 7.75732 1.50780 3.80771
C 8.47560 3.79343 -0.27112
C 9.01969 -0.26111 -2.63026
N 8.46712 -0.49044 2.41628
C 8.57691 -1.78251 2.68622
C 8.32265 -2.15304 4.17203
C 7.41324 -0.89440 4.58151
C 7.93025 0.12167 3.56515
C 5.93143 -1.11405 4.32589
C 9.64763 -2.20156 5.01112
C 9.51307 -2.85488 6.38838
H 10.63394 -3.63922 6.89919
N 8.69479 2.46770 1.74151
C 8.22453 2.56962 3.00236
C 8.21708 4.00732 3.31398
C 8.56556 4.75728 2.07671
C 8.57195 3.67940 1.10810
C 7.97781 4.53885 4.69733
C 8.83438 6.20688 1.80723
O 8.88406 6.67199 0.61390
C 8.94493 7.08274 2.98288
N 8.55836 1.64475 -1.17592
C 8.45000 2.97670 -1.32451
C 8.45106 3.36464 -2.78392
C 8.82753 2.03125 -3.58263
C 8.89446 1.03887 -2.40106
C 7.13620 3.92685 -3.32377
C 10.03898 2.10961 -4.55161
C 11.31626 2.30295 -3.76640
N 9.17303 -1.08503 -0.33456
C 9.15046 -1.30953 -1.72854
C 9.23302 -2.76990 -1.93572
C 9.27503 -3.29931 -0.63708
C 9.20201 -2.24468 0.31261
C 9.21209 -3.43403 -3.19454
C 9.35384 -4.51119 0.14638
O 9.52287 -5.70242 -0.11080
C 9.03333 -4.15493 1.66189
C 10.08069 -4.80550 2.52347
O 11.26925 -4.44634 2.45326
O 9.47652 -5.58658 3.43739
C 10.47363 -6.24504 4.32284
H 7.17198 1.81362 4.67532
H 8.42512 4.81405 -0.65747
H 9.14829 -0.66682 -3.63601
H 7.77240 -3.07406 4.32276
H 7.62886 -0.56416 5.59433
H 5.74611 -2.03851 3.79942
H 5.60686 -0.26920 3.73266
H 5.37404 -1.05473 5.26510
H 9.91803 -1.18142 5.31270
H 10.43134 -2.68199 4.45829
H 8.57500 -3.41413 6.48943
H 9.43721 -2.06606 7.14072
H 7.58618 3.76137 5.36483
H 7.16408 5.26839 4.62326
H 8.85727 5.03180 5.11712
H 8.02487 7.03025 3.56011
H 9.22657 8.06241 2.59198
H 9.74390 6.70203 3.62888
H 9.20333 4.11793 -2.98329
H 8.00231 1.69618 -4.22806
H 7.24273 4.93317 -3.77103
H 6.41538 3.94361 -2.51712
H 6.63814 3.30511 -4.06578
H 9.94353 2.97823 -5.20777
H 10.14134 1.23599 -5.18666
H 11.33822 3.38301 -3.59296
H 12.17660 1.97911 -4.34862
H 11.25454 1.81312 -2.78767
H 9.97409 -4.20101 -3.15462
H 9.38836 -2.73963 -4.01338
H 8.18856 -3.81830 -3.19532
H 8.03251 -4.52859 1.88165
H 10.28918 -7.32228 4.26610
H 10.35679 -5.76544 5.31284
H 11.51568 -6.19317 4.02977

