%nproc=24
%mem=175gb
#p cam-b3lyp/Def2SVP td=(nstates=5)

TDDFT excited states in gaussian

0 1
Mg 13.13057 1.18508 0.99147
C 13.34802 -1.56733 -1.30114
C 13.64314 3.25137 -1.67355
C 13.39365 3.59568 3.03773
C 13.77572 -1.08235 3.55823
N 13.44109 0.77584 -1.15989
C 13.44233 -0.30564 -1.92458
C 13.46996 -0.01530 -3.44921
C 14.13210 1.44702 -3.40357
C 13.68573 1.87395 -2.00673
C 15.65125 1.42095 -3.43238
C 12.03217 0.02450 -4.07625
C 11.99663 -0.00463 -5.60584
H 10.90603 -0.71942 -6.26323
N 12.98069 3.14193 0.69682
C 13.20214 3.81084 -0.45418
C 12.97937 5.23135 -0.14324
C 12.76931 5.36298 1.32416
C 13.06689 4.01181 1.75530
C 12.90130 6.29339 -1.20125
C 12.37922 6.51742 2.19668
O 12.48758 6.46380 3.47269
C 11.95494 7.74534 1.50842
N 13.73511 1.28870 2.97796
C 13.70595 2.45315 3.64962
C 13.91871 2.23522 5.12868
C 13.85557 0.65166 5.34307
C 13.69938 0.20335 3.87337
C 15.23085 2.77375 5.69847
C 12.83640 0.12320 6.38934
C 11.42548 0.36912 5.90538
N 13.31560 -0.96086 1.16113
C 13.61401 -1.70186 2.32558
C 13.74751 -3.11596 1.91946
C 13.53859 -3.09620 0.53222
C 13.31226 -1.76118 0.10096
C 14.07347 -4.20153 2.78051
C 13.46858 -3.89978 -0.66698
O 13.49395 -5.10622 -0.90694
C 13.46745 -2.92963 -1.92603
C 12.36972 -3.37366 -2.85357
O 11.17820 -3.29469 -2.50620
O 12.89100 -3.61234 -4.07080
C 11.83901 -4.04500 -5.02890
H 14.02252 3.97240 -2.39816
H 13.38822 4.37595 3.80235
H 13.87911 -1.86357 4.31432
H 14.09198 -0.68719 -4.02838
H 13.70051 2.09975 -4.15790
H 16.03840 0.41550 -3.35935
H 15.97175 2.01228 -2.58465
H 16.02044 1.94220 -4.32026
H 11.59055 1.01321 -3.89686
H 11.42403 -0.76803 -3.68551
H 12.96232 -0.29817 -6.03507
H 11.84058 1.01416 -5.96879
H 13.25866 5.92310 -2.17005
H 13.62059 7.07234 -0.92609
H 11.90779 6.74051 -1.27674
H 12.75648 8.09128 0.86010
H 11.63101 8.42596 2.29816
H 11.10554 7.50656 0.85872
H 13.12849 2.69973 5.70563
H 14.81730 0.24932 5.69383
H 15.08475 3.48860 6.53016
H 15.78845 3.23495 4.89417
H 15.92516 2.01503 6.05553
H 12.94154 0.66948 7.32991
H 12.95589 -0.93136 6.61432
H 11.24207 1.40759 6.19695
H 10.72878 -0.30755 6.39606
H 11.37022 0.31912 4.81172
H 13.41533 -5.01810 2.51486
H 13.96351 -3.92565 3.82721
H 15.11958 -4.36107 2.50578
H 14.45069 -2.99792 -2.39309
H 12.15988 -5.00573 -5.44331
H 11.71800 -3.20536 -5.73892
H 10.86765 -4.30329 -4.62370

