%nproc=24
%mem=175gb
#p cam-b3lyp/Def2SVP td=(nstates=5)

TDDFT excited states in gaussian

0 1
Mg 7.88951 0.71774 0.60151
C 7.40322 0.81455 4.15583
C 6.72515 3.92235 0.50516
C 7.87945 0.51359 -2.56483
C 7.91533 -2.75910 0.83945
N 7.18665 2.08507 2.19167
C 7.10488 2.03388 3.51267
C 6.75695 3.38732 4.18848
C 6.02261 4.09402 2.94744
C 6.70777 3.35080 1.80252
C 4.53286 3.80095 2.88332
C 8.03636 4.18253 4.62753
C 7.77016 5.36158 5.56600
H 8.75344 5.66140 6.60318
N 7.84954 2.14458 -0.77729
C 7.36123 3.39519 -0.64019
C 7.54760 4.04534 -1.94661
C 8.03497 3.02431 -2.91341
C 7.91783 1.82373 -2.11030
C 7.34489 5.51746 -2.15921
C 8.51361 3.11198 -4.33094
O 8.66380 2.06633 -5.05681
C 8.71183 4.46394 -4.87354
N 7.68481 -0.88448 -0.70744
C 7.77003 -0.70591 -2.03740
C 7.86908 -2.02815 -2.76007
C 8.07703 -3.12768 -1.61755
C 7.96816 -2.22160 -0.37153
C 6.66334 -2.40880 -3.61895
C 9.31558 -4.05553 -1.75081
C 10.58353 -3.25385 -1.56376
N 7.88274 -0.73172 2.20372
C 7.87001 -2.13846 2.08128
C 7.75167 -2.69315 3.44537
C 7.68003 -1.56137 4.27146
C 7.72852 -0.38441 3.47653
C 7.67450 -4.07509 3.77764
C 7.56371 -1.09472 5.63432
O 7.57042 -1.63331 6.74049
C 7.25195 0.46368 5.61000
C 8.17098 1.13660 6.59239
O 9.39989 1.14886 6.40207
O 7.43577 1.83775 7.47457
C 8.30327 2.53220 8.46301
H 6.16340 4.84134 0.33553
H 7.98503 0.38585 -3.64465
H 8.01511 -3.83381 1.00597
H 6.07796 3.31381 5.02952
H 6.25258 5.15545 2.90468
H 4.23456 3.06753 3.61766
H 4.34853 3.43146 1.88305
H 3.96184 4.72965 2.97154
H 8.43901 4.72041 3.75960
H 8.76042 3.52564 5.06896
H 6.75996 5.32948 5.99191
H 7.78417 6.28278 4.97846
H 6.82782 5.97922 -1.30902
H 6.64485 5.62647 -2.99463
H 8.27230 6.03920 -2.40486
H 7.77688 5.01635 -4.81718
H 9.14041 4.32007 -5.86726
H 9.42955 4.99432 -4.23778
H 8.72573 -2.04350 -3.42265
H 7.23227 -3.83048 -1.56982
H 6.92407 -2.59996 -4.67703
H 5.92852 -1.61813 -3.54525
H 6.10470 -3.27643 -3.27204
H 9.36320 -4.48159 -2.75597
H 9.31236 -4.88358 -1.04987
H 10.75261 -2.82445 -2.55579
H 11.40641 -3.90180 -1.26866
H 10.42431 -2.42233 -0.86742
H 8.31907 -4.22602 4.63336
H 7.97122 -4.70262 2.93983
H 6.60745 -4.16322 3.99881
H 6.20233 0.59200 5.87721
H 7.97035 2.21760 9.45693
H 8.22603 3.60942 8.22347
H 9.35042 2.25469 8.49305

