%nproc=24
%mem=175gb
#p cam-b3lyp/Def2SVP td=(nstates=5)

TDDFT excited states in gaussian

0 1
Mg 10.50747 0.94853 0.78866
C 12.11369 -1.64581 -1.10040
C 12.21387 3.19514 -1.12852
C 9.46223 3.23952 2.71901
C 9.84319 -1.43862 3.23936
N 11.94774 0.68617 -0.86937
C 12.43522 -0.34543 -1.54206
C 13.25200 0.03831 -2.80506
C 13.67992 1.52442 -2.37235
C 12.52701 1.84409 -1.42299
C 14.97676 1.57105 -1.58155
C 12.37304 0.04916 -4.10481
C 13.16228 0.11172 -5.41436
H 12.64637 -0.61175 -6.57320
N 10.39757 2.91059 0.51147
C 11.15073 3.65803 -0.32241
C 10.69460 5.04500 -0.14230
C 9.72433 5.07696 0.98564
C 9.84206 3.71737 1.47324
C 11.11746 6.16478 -1.04823
C 8.84646 6.15660 1.54236
O 8.25998 6.03038 2.67503
C 8.76825 7.40306 0.76667
N 9.94806 0.95892 2.79098
C 9.48077 2.07762 3.37243
C 8.88560 1.78006 4.72802
C 8.83204 0.18517 4.83301
C 9.51788 -0.17949 3.49808
C 9.64761 2.34347 5.92731
C 7.45279 -0.45308 5.15392
C 6.50519 -0.24420 3.99470
N 10.72737 -1.19278 0.97433
C 10.41010 -1.98868 2.09681
C 10.84142 -3.36762 1.78869
C 11.40506 -3.27307 0.50734
C 11.34857 -1.92625 0.05748
C 10.73426 -4.48728 2.66104
C 12.04460 -4.00442 -0.56262
O 12.28112 -5.19149 -0.78322
C 12.64628 -2.96042 -1.59917
C 12.24915 -3.39779 -2.98247
O 11.05430 -3.39581 -3.32734
O 13.35566 -3.53722 -3.73518
C 13.01256 -3.95926 -5.11937
H 12.86852 3.97593 -1.51670
H 8.99297 3.97060 3.38142
H 9.58269 -2.25882 3.91174
H 14.13372 -0.56726 -2.97715
H 13.67230 2.20109 -3.22289
H 15.33631 0.58218 -1.33865
H 14.75124 2.12390 -0.67902
H 15.72444 2.16213 -2.11815
H 11.83397 1.00340 -4.16456
H 11.70920 -0.79323 -4.12287
H 14.22611 -0.10973 -5.26546
H 13.15129 1.14235 -5.77726
H 11.96267 5.87132 -1.68298
H 11.52019 6.95821 -0.40936
H 10.28874 6.56883 -1.63357
H 9.76476 7.82491 0.65960
H 8.02448 8.01841 1.27660
H 8.41707 7.16498 -0.24358
H 7.87832 2.17116 4.80242
H 9.48373 -0.19251 5.63457
H 9.02875 2.99869 6.56900
H 10.51368 2.87837 5.56077
H 10.09638 1.59762 6.58115
H 6.99954 0.03915 6.01788
H 7.50927 -1.51267 5.37990
H 6.12009 0.76488 4.16950
H 5.70502 -0.98129 4.01641
H 7.04646 -0.22993 3.04156
H 10.38067 -5.31594 2.06203
H 10.06263 -4.28117 3.49182
H 11.77364 -4.58079 2.98693
H 13.72888 -2.95415 -1.46679
H 13.57344 -4.87691 -5.32188
H 13.22939 -3.08445 -5.76082
H 11.99655 -4.28680 -5.30617

