%nproc=24
%mem=175gb
#p cam-b3lyp/Def2SVP td=(nstates=5)

TDDFT excited states in gaussian

0 1
Mg 0.00000 0.00000 0.00000
C -0.21700 -2.21800 2.80100
C -1.25500 2.44200 2.02600
C -0.24500 1.85000 -2.56400
C 0.14600 -2.82400 -2.03700
N -0.61700 -0.00900 2.12600
C -0.59400 -0.90800 3.10500
C -0.93600 -0.30900 4.50200
C -1.77300 0.96400 4.03200
C -1.15500 1.16800 2.66000
C -3.26300 0.68500 3.86300
C 0.34500 0.11000 5.29900
C 0.12400 0.39700 6.78700
H 1.16800 0.03300 7.73300
N -0.18500 1.96100 -0.15200
C -0.70300 2.80000 0.77700
C -0.62000 4.15600 0.19300
C -0.18700 4.01500 -1.22500
C -0.21400 2.58300 -1.38000
C -0.88700 5.40600 0.97400
C 0.18100 5.01300 -2.27700
O 0.30300 4.69000 -3.50800
C 0.31000 6.41400 -1.83700
N -0.26500 -0.41300 -2.02900
C -0.27900 0.56900 -2.93700
C -0.19600 0.02400 -4.33200
C 0.12400 -1.53300 -4.18000
C 0.08600 -1.63200 -2.63500
C -1.45100 0.20500 -5.19700
C 1.37300 -2.07000 -4.92300
C 2.62600 -1.49000 -4.30600
N 0.15000 -2.14400 0.30300
C 0.17300 -3.13600 -0.68800
C 0.17300 -4.43800 0.00400
C 0.13300 -4.11100 1.35800
C 0.08300 -2.69500 1.50200
C 0.14900 -5.71500 -0.62300
C 0.09600 -4.62900 2.71600
O 0.20800 -5.74700 3.22100
C -0.25500 -3.42800 3.70100
C 0.71700 -3.48200 4.84800
O 1.93100 -3.25500 4.66900
O 0.03800 -3.55600 6.00300
C 0.94300 -3.58300 7.18300
H -1.85900 3.22000 2.49700
H -0.21800 2.45300 -3.47400
H 0.27600 -3.74700 -2.60500
H -1.55400 -0.94900 5.13200
H -1.58500 1.83100 4.66500
H -3.48400 -0.37700 3.96900
H -3.51100 1.02700 2.85800
H -3.85200 1.30100 4.54300
H 0.66900 1.09600 4.96600
H 1.13000 -0.63900 5.18900
H -0.84400 0.02600 7.12500
H 0.06200 1.47700 6.92100
H -1.34400 5.18600 1.93800
H -1.65100 5.96300 0.43200
H 0.00700 6.02000 1.08400
H -0.63500 6.74400 -1.40500
H 0.66500 6.97000 -2.70400
H 1.04800 6.46600 -1.03600
H 0.60800 0.50100 -4.89100
H -0.69200 -2.15600 -4.54700
H -1.26700 0.74000 -6.12900
H -2.20400 0.71400 -4.59600
H -1.96700 -0.72000 -5.45300
H 1.35600 -1.75900 -5.96700
H 1.45200 -3.15700 -4.90200
H 2.71400 -0.52200 -4.79800
H 3.48700 -2.12100 -4.52900
H 2.49500 -1.30300 -3.24000
H 0.86700 -6.33300 -0.08400
H 0.40400 -5.64200 -1.68000
H -0.89100 -5.99900 -0.46300
H -1.28300 -3.58100 4.02800
H 0.69800 -4.47800 7.75500
H 0.83300 -2.61900 7.68000
H 2.00000 -3.75400 6.97600
Mg 15.76065 1.41372 1.20462
C 14.69945 3.98105 3.47656
C 17.32039 -0.07331 3.84859
C 17.08416 -0.61501 -0.84478
C 15.11660 3.64242 -1.39611
N 15.91718 1.97682 3.33785
C 15.42137 2.94113 4.09852
C 15.64733 2.73978 5.62101
C 16.93586 1.78411 5.54855
C 16.69933 1.15858 4.17543
C 18.24940 2.54709 5.50597
C 14.43741 2.02106 6.31494
C 14.45274 2.06803 7.84442
H 13.17906 2.17796 8.55020
N 16.59541 -0.36040 1.51162
C 17.16017 -0.80744 2.65288
C 17.64596 -2.16410 2.35682
C 17.46882 -2.41854 0.90128
C 17.05273 -1.10485 0.45276
C 18.13740 -3.10258 3.42039
C 17.65674 -3.63859 0.05136
O 17.67463 -3.57141 -1.22848
C 17.91242 -4.89981 0.76232
N 16.25987 1.56708 -0.80774
C 16.77545 0.51909 -1.47394
C 16.79627 0.77540 -2.96198
C 15.96084 2.12191 -3.17773
C 15.66424 2.47464 -1.70362
C 18.18075 0.92944 -3.59116
C 14.77286 2.06067 -4.17653
C 13.68119 1.17143 -3.62619
N 14.86934 3.37322 1.02029
C 14.72236 4.13593 -0.15901
C 14.16561 5.44595 0.23631
C 14.04790 5.36222 1.63188
C 14.51828 4.09731 2.07713
C 13.88671 6.53064 -0.64221
C 13.64260 6.06023 2.83072
O 13.08617 7.13209 3.06575
C 14.16432 5.24455 4.09123
C 13.02708 5.12146 5.06798
O 12.01251 4.46367 4.77714
O 13.41361 5.61452 6.25872
C 12.32302 5.50453 7.26388
H 18.03144 -0.49982 4.55668
H 17.42949 -1.31835 -1.60605
H 14.79607 4.35568 -2.15847
H 15.88531 3.64393 6.16841
H 16.90742 1.02322 6.32419
H 18.09412 3.61161 5.41195
H 18.78364 2.16525 4.64583
H 18.86064 2.29421 6.37704
H 14.52703 0.93824 6.15932
H 13.50519 2.40711 5.95089
H 15.16898 2.80530 8.22701
H 14.82758 1.11172 8.21723
H 18.30696 -2.58070 4.37028
H 19.13362 -3.43957 3.11402
H 17.49173 -3.97468 3.54371
H 18.80586 -4.79524 1.37330
H 17.93038 -5.67183 -0.00939
H 17.08084 -5.08830 1.45047
H 16.31057 -0.02951 -3.49987
H 16.58972 2.93247 -3.57439
H 18.36884 0.21302 -4.41302
H 18.92376 0.81858 -2.81259
H 18.40242 1.92082 -3.98259
H 15.09362 1.61098 -5.11942
H 14.35415 3.03392 -4.40991
H 14.01585 0.16799 -3.90583
H 12.72423 1.41066 -4.08558
H 13.65189 1.21594 -2.53128
H 12.92513 6.92999 -0.34832
H 13.88384 6.20965 -1.68179
H 14.73230 7.18613 -0.41733
H 15.00716 5.79466 4.51144
H 12.15101 6.51011 7.66000
H 12.65483 4.73051 7.98121
H 11.33380 5.24693 6.90396

