%nproc=24
%mem=175gb
#p cam-b3lyp/Def2SVP td=(nstates=5)

TDDFT excited states in gaussian

0 1
Mg 0.00000 0.00000 0.00000
C -0.21700 -2.21800 2.80100
C -1.25500 2.44200 2.02600
C -0.24500 1.85000 -2.56400
C 0.14600 -2.82400 -2.03700
N -0.61700 -0.00900 2.12600
C -0.59400 -0.90800 3.10500
C -0.93600 -0.30900 4.50200
C -1.77300 0.96400 4.03200
C -1.15500 1.16800 2.66000
C -3.26300 0.68500 3.86300
C 0.34500 0.11000 5.29900
C 0.12400 0.39700 6.78700
H 1.16800 0.03300 7.73300
N -0.18500 1.96100 -0.15200
C -0.70300 2.80000 0.77700
C -0.62000 4.15600 0.19300
C -0.18700 4.01500 -1.22500
C -0.21400 2.58300 -1.38000
C -0.88700 5.40600 0.97400
C 0.18100 5.01300 -2.27700
O 0.30300 4.69000 -3.50800
C 0.31000 6.41400 -1.83700
N -0.26500 -0.41300 -2.02900
C -0.27900 0.56900 -2.93700
C -0.19600 0.02400 -4.33200
C 0.12400 -1.53300 -4.18000
C 0.08600 -1.63200 -2.63500
C -1.45100 0.20500 -5.19700
C 1.37300 -2.07000 -4.92300
C 2.62600 -1.49000 -4.30600
N 0.15000 -2.14400 0.30300
C 0.17300 -3.13600 -0.68800
C 0.17300 -4.43800 0.00400
C 0.13300 -4.11100 1.35800
C 0.08300 -2.69500 1.50200
C 0.14900 -5.71500 -0.62300
C 0.09600 -4.62900 2.71600
O 0.20800 -5.74700 3.22100
C -0.25500 -3.42800 3.70100
C 0.71700 -3.48200 4.84800
O 1.93100 -3.25500 4.66900
O 0.03800 -3.55600 6.00300
C 0.94300 -3.58300 7.18300
H -1.85900 3.22000 2.49700
H -0.21800 2.45300 -3.47400
H 0.27600 -3.74700 -2.60500
H -1.55400 -0.94900 5.13200
H -1.58500 1.83100 4.66500
H -3.48400 -0.37700 3.96900
H -3.51100 1.02700 2.85800
H -3.85200 1.30100 4.54300
H 0.66900 1.09600 4.96600
H 1.13000 -0.63900 5.18900
H -0.84400 0.02600 7.12500
H 0.06200 1.47700 6.92100
H -1.34400 5.18600 1.93800
H -1.65100 5.96300 0.43200
H 0.00700 6.02000 1.08400
H -0.63500 6.74400 -1.40500
H 0.66500 6.97000 -2.70400
H 1.04800 6.46600 -1.03600
H 0.60800 0.50100 -4.89100
H -0.69200 -2.15600 -4.54700
H -1.26700 0.74000 -6.12900
H -2.20400 0.71400 -4.59600
H -1.96700 -0.72000 -5.45300
H 1.35600 -1.75900 -5.96700
H 1.45200 -3.15700 -4.90200
H 2.71400 -0.52200 -4.79800
H 3.48700 -2.12100 -4.52900
H 2.49500 -1.30300 -3.24000
H 0.86700 -6.33300 -0.08400
H 0.40400 -5.64200 -1.68000
H -0.89100 -5.99900 -0.46300
H -1.28300 -3.58100 4.02800
H 0.69800 -4.47800 7.75500
H 0.83300 -2.61900 7.68000
H 2.00000 -3.75400 6.97600
Mg 15.76970 1.42711 1.20408
C 16.75276 -0.47545 4.08383
C 13.56419 3.06591 3.22514
C 14.56678 2.80180 -1.39027
C 17.18032 -1.08093 -0.76202
N 15.31071 1.23161 3.35893
C 15.79134 0.51740 4.36553
C 15.26773 0.94264 5.76359
C 13.89220 1.63317 5.30538
C 14.28283 2.03738 3.88527
C 12.72857 0.65935 5.22181
C 16.21893 1.97083 6.47075
C 15.93400 2.19309 7.95775
H 17.06163 2.43146 8.85447
N 14.65217 3.05618 1.01479
C 13.83317 3.59353 1.94311
C 13.22310 4.77178 1.30774
C 13.62300 4.79159 -0.12558
C 14.29384 3.51128 -0.22980
C 12.42043 5.78425 2.07198
C 13.42224 5.79102 -1.22423
O 13.64574 5.49655 -2.45149
C 12.86745 7.09460 -0.83132
N 15.66926 0.83644 -0.78673
C 15.14053 1.64502 -1.72192
C 15.42541 1.12997 -3.11259
C 16.46696 -0.06852 -2.92187
C 16.53868 -0.09841 -1.37935
C 14.21319 0.63022 -3.89819
C 17.79538 0.01952 -3.72201
C 18.63347 1.16711 -3.20622
N 16.94615 -0.35013 1.55826
C 17.40974 -1.27227 0.59450
C 18.06438 -2.37552 1.32710
C 17.91480 -2.02730 2.67798
C 17.19855 -0.80422 2.78078
C 18.64725 -3.53366 0.73966
C 18.19065 -2.42164 4.04073
O 18.84048 -3.32251 4.56977
C 17.34015 -1.49858 5.01592
C 18.25319 -1.01008 6.10691
O 19.20089 -0.24882 5.84433
O 17.73092 -1.34410 7.30107
C 18.59525 -0.87135 8.41519
H 12.68402 3.48150 3.71655
H 14.26942 3.28903 -2.32175
H 17.73049 -1.85145 -1.30634
H 15.06421 0.12222 6.44127
H 13.67264 2.51248 5.90534
H 13.04640 -0.36190 5.37068
H 12.31041 0.78494 4.23165
H 11.94050 0.95277 5.92122
H 16.00759 2.97703 6.08651
H 17.24649 1.69349 6.33723
H 15.27127 1.42257 8.37012
H 15.36725 3.12085 8.06760
H 12.15696 5.41722 3.07161
H 11.45873 5.88446 1.55723
H 12.90401 6.76266 2.11103
H 11.90198 6.94691 -0.35329
H 12.88099 7.70311 -1.73764
H 13.52596 7.54261 -0.07882
H 15.88230 1.89872 -3.72364
H 16.04051 -1.03272 -3.23537
H 14.07801 1.14659 -4.86730
H 13.33355 0.74690 -3.27920
H 14.20760 -0.43790 -4.10862
H 17.59045 0.23311 -4.77393
H 18.38200 -0.89243 -3.68692
H 18.21720 2.03212 -3.73116
H 19.68169 1.01944 -3.45813
H 18.47022 1.32262 -2.13346
H 19.58626 -3.70249 1.24982
H 18.79292 -3.40595 -0.33096
H 17.87564 -4.27518 0.96337
H 16.52107 -2.10296 5.40760
H 18.83243 -1.74595 9.02879
H 18.03371 -0.05187 8.90189
H 19.58704 -0.51443 8.16335

