%nproc=24
%mem=175gb
#p cam-b3lyp/Def2SVP td=(nstates=5)

TDDFT excited states in gaussian

0 1
Mg 7.87641 0.70508 0.60559
C 7.27087 3.39359 2.90435
C 9.07704 -1.08579 3.24868
C 8.83617 -1.50689 -1.45681
C 7.71329 3.05171 -1.96586
N 8.09359 1.19846 2.75074
C 7.77251 2.22786 3.51988
C 7.92658 1.96609 5.04215
C 9.01418 0.78651 4.97445
C 8.69171 0.23608 3.58675
C 10.44809 1.28970 4.96732
C 6.58986 1.47768 5.70295
C 6.58351 1.49925 7.23307
H 5.33935 1.83646 7.91925
N 8.35739 -1.19844 0.89520
C 8.80563 -1.75973 2.03770
C 9.03410 -3.17916 1.72595
C 8.84118 -3.37514 0.26339
C 8.68780 -2.00045 -0.16881
C 9.31971 -4.20822 2.78088
C 8.81370 -4.59660 -0.60464
O 8.86915 -4.51585 -1.88262
C 8.81421 -5.89334 0.08814
N 8.43519 0.79044 -1.39511
C 8.75813 -0.32619 -2.07095
C 8.85604 -0.05729 -3.55369
C 8.29241 1.42510 -3.75962
C 8.03816 1.80633 -2.28470
C 10.25700 -0.15716 -4.15679
C 7.13399 1.60226 -4.77911
C 5.88425 0.92620 -4.26288
N 7.37224 2.79953 0.44093
C 7.39424 3.59291 -0.72703
C 7.08536 4.97846 -0.31805
C 6.92649 4.89856 1.07366
C 7.14241 3.56163 1.50435
C 7.03226 6.10857 -1.18186
C 6.63569 5.64321 2.27766
O 6.28563 6.79707 2.52221
C 6.97017 4.72628 3.53215
C 5.81095 4.80517 4.48740
O 4.69697 4.35386 4.16807
O 6.25949 5.19991 5.69296
C 5.14799 5.28251 6.67762
H 9.68135 -1.64826 3.96095
H 9.05843 -2.25172 -2.22447
H 7.54734 3.82322 -2.72079
H 8.31904 2.80160 5.60932
H 8.82822 0.03360 5.73596
H 10.49710 2.36566 4.88950
H 10.91812 0.82654 4.10965
H 10.98372 0.91419 5.84392
H 6.47786 0.39962 5.52979
H 5.75396 2.03709 5.33020
H 7.41762 2.08336 7.64053
H 6.76490 0.48437 7.59518
H 9.56534 -3.74100 3.74253
H 10.24089 -4.72197 2.48535
H 8.51962 -4.94517 2.87798
H 9.69915 -5.96713 0.71575
H 8.70229 -6.64398 -0.69664
H 7.94860 -5.93201 0.75885
H 8.23873 -0.74893 -4.11374
H 9.06986 2.10863 -4.13135
H 10.32359 -0.88444 -4.98788
H 10.95051 -0.41664 -3.36795
H 10.66836 0.78038 -4.52691
H 7.38328 1.11373 -5.72427
H 6.90994 2.64005 -5.00227
H 6.03024 -0.11817 -4.55453
H 4.99842 1.34742 -4.73394
H 5.84220 0.95991 -3.16800
H 6.15703 6.67724 -0.89712
H 6.98978 5.80860 -2.22684
H 7.98117 6.59031 -0.93134
H 7.89276 5.10225 3.97605
H 5.15984 6.29678 7.08847
H 5.31450 4.44986 7.38664
H 4.13532 5.22044 6.29670

