%nproc=24
%mem=175gb
#p cam-b3lyp/Def2SVP td=(nstates=5)

TDDFT excited states in gaussian

0 1
Mg 10.50258 0.94933 0.80433
C 12.15781 2.83106 3.37306
C 9.31650 -1.08835 3.26921
C 9.40639 -0.98512 -1.45923
C 12.69669 2.40226 -1.48054
N 10.77143 0.97160 2.99966
C 11.37133 1.77054 3.86923
C 11.04876 1.46110 5.35576
C 10.64445 -0.08496 5.19729
C 10.17997 -0.06825 3.74242
C 11.82822 -1.03118 5.30991
C 9.84963 2.31578 5.89762
C 9.67869 2.29258 7.41815
H 9.21822 3.50715 8.08541
N 9.12575 -0.47739 0.89018
C 8.75405 -1.18516 1.97746
C 7.72232 -2.12502 1.51232
C 7.63302 -2.02760 0.03001
C 8.75733 -1.15562 -0.24506
C 6.88255 -2.94149 2.45125
C 6.69906 -2.63097 -0.97491
O 6.95130 -2.60152 -2.23123
C 5.52741 -3.33891 -0.43868
N 11.11343 0.57403 -1.14718
C 10.43001 -0.27529 -1.93427
C 10.88746 -0.17642 -3.37001
C 11.85700 1.09421 -3.42547
C 11.86297 1.47351 -1.92831
C 11.62015 -1.39974 -3.92049
C 11.51472 2.19577 -4.46569
C 10.22186 2.88085 -4.08546
N 12.01214 2.49392 0.86373
C 12.83111 2.92764 -0.20175
C 13.77997 3.91502 0.35250
C 13.45978 3.97060 1.71737
C 12.40050 3.06580 1.99801
C 14.80467 4.58337 -0.37511
C 13.78410 4.58114 2.98652
O 14.53669 5.48451 3.34884
C 13.04011 3.77768 4.13862
C 12.37534 4.77598 5.04636
O 11.44444 5.48749 4.62947
O 12.79820 4.57455 6.30770
C 12.15829 5.53365 7.24709
H 9.07883 -1.91761 3.93609
H 8.99261 -1.54916 -2.29836
H 13.34747 2.97266 -2.14672
H 11.88908 1.55817 6.03266
H 9.82175 -0.34772 5.85721
H 12.76631 -0.49863 5.36024
H 11.79312 -1.65287 4.42486
H 11.69102 -1.70721 6.15872
H 8.90681 1.84201 5.59531
H 9.92066 3.33059 5.55742
H 10.56182 1.88630 7.92606
H 8.87959 1.59000 7.66683
H 7.28815 -2.92623 3.47039
H 6.97617 -3.98673 2.13728
H 5.82803 -2.65848 2.42762
H 5.85887 -4.14374 0.21312
H 4.93354 -3.62268 -1.30969
H 4.95434 -2.64422 0.18550
H 10.04767 -0.00684 -4.03265
H 12.88803 0.80915 -3.68153
H 11.14620 -1.82099 -4.82713
H 11.67471 -2.14544 -3.13851
H 12.66984 -1.23988 -4.16092
H 11.35183 1.74975 -5.44991
H 12.29354 2.94300 -4.57564
H 9.45856 2.20968 -4.49043
H 10.16240 3.86704 -4.54145
H 10.09497 2.90570 -2.99692
H 14.78282 5.61919 -0.06349
H 14.65728 4.48722 -1.44879
H 15.68187 4.02959 -0.02997
H 13.79115 3.18489 4.66218
H 12.96561 6.05208 7.77355
H 11.46208 4.93147 7.86062
H 11.61515 6.36793 6.81880

