%nproc=24
%mem=175gb
#p cam-b3lyp/Def2SVP td=(nstates=5)

TDDFT excited states in gaussian

0 1
Mg 0.00000 0.00000 0.00000
C -0.21700 -2.21800 2.80100
C -1.25500 2.44200 2.02600
C -0.24500 1.85000 -2.56400
C 0.14600 -2.82400 -2.03700
N -0.61700 -0.00900 2.12600
C -0.59400 -0.90800 3.10500
C -0.93600 -0.30900 4.50200
C -1.77300 0.96400 4.03200
C -1.15500 1.16800 2.66000
C -3.26300 0.68500 3.86300
C 0.34500 0.11000 5.29900
C 0.12400 0.39700 6.78700
H 1.16800 0.03300 7.73300
N -0.18500 1.96100 -0.15200
C -0.70300 2.80000 0.77700
C -0.62000 4.15600 0.19300
C -0.18700 4.01500 -1.22500
C -0.21400 2.58300 -1.38000
C -0.88700 5.40600 0.97400
C 0.18100 5.01300 -2.27700
O 0.30300 4.69000 -3.50800
C 0.31000 6.41400 -1.83700
N -0.26500 -0.41300 -2.02900
C -0.27900 0.56900 -2.93700
C -0.19600 0.02400 -4.33200
C 0.12400 -1.53300 -4.18000
C 0.08600 -1.63200 -2.63500
C -1.45100 0.20500 -5.19700
C 1.37300 -2.07000 -4.92300
C 2.62600 -1.49000 -4.30600
N 0.15000 -2.14400 0.30300
C 0.17300 -3.13600 -0.68800
C 0.17300 -4.43800 0.00400
C 0.13300 -4.11100 1.35800
C 0.08300 -2.69500 1.50200
C 0.14900 -5.71500 -0.62300
C 0.09600 -4.62900 2.71600
O 0.20800 -5.74700 3.22100
C -0.25500 -3.42800 3.70100
C 0.71700 -3.48200 4.84800
O 1.93100 -3.25500 4.66900
O 0.03800 -3.55600 6.00300
C 0.94300 -3.58300 7.18300
H -1.85900 3.22000 2.49700
H -0.21800 2.45300 -3.47400
H 0.27600 -3.74700 -2.60500
H -1.55400 -0.94900 5.13200
H -1.58500 1.83100 4.66500
H -3.48400 -0.37700 3.96900
H -3.51100 1.02700 2.85800
H -3.85200 1.30100 4.54300
H 0.66900 1.09600 4.96600
H 1.13000 -0.63900 5.18900
H -0.84400 0.02600 7.12500
H 0.06200 1.47700 6.92100
H -1.34400 5.18600 1.93800
H -1.65100 5.96300 0.43200
H 0.00700 6.02000 1.08400
H -0.63500 6.74400 -1.40500
H 0.66500 6.97000 -2.70400
H 1.04800 6.46600 -1.03600
H 0.60800 0.50100 -4.89100
H -0.69200 -2.15600 -4.54700
H -1.26700 0.74000 -6.12900
H -2.20400 0.71400 -4.59600
H -1.96700 -0.72000 -5.45300
H 1.35600 -1.75900 -5.96700
H 1.45200 -3.15700 -4.90200
H 2.71400 -0.52200 -4.79800
H 3.48700 -2.12100 -4.52900
H 2.49500 -1.30300 -3.24000
H 0.86700 -6.33300 -0.08400
H 0.40400 -5.64200 -1.68000
H -0.89100 -5.99900 -0.46300
H -1.28300 -3.58100 4.02800
H 0.69800 -4.47800 7.75500
H 0.83300 -2.61900 7.68000
H 2.00000 -3.75400 6.97600
Mg 31.53861 2.84414 2.40220
C 31.47477 0.62747 5.22379
C 30.14284 5.21298 4.42087
C 31.16506 4.66993 -0.16575
C 31.84354 0.02763 0.37242
N 30.93394 2.80564 4.52944
C 31.01450 1.92786 5.51805
C 30.65304 2.49830 6.91573
C 29.72660 3.72214 6.44371
C 30.32189 3.95875 5.05723
C 28.26493 3.34115 6.27725
C 31.91499 3.00243 7.70017
C 31.67843 3.28510 9.18540
H 32.75437 2.99493 10.12913
N 31.23131 4.79886 2.24988
C 30.67390 5.60938 3.17380
C 30.65543 6.95190 2.57258
C 31.09620 6.83748 1.15577
C 31.16281 5.39660 1.01598
C 30.32305 8.18927 3.35479
C 31.39446 7.85600 0.09754
O 31.53191 7.52733 -1.13368
C 31.42832 9.26059 0.53050
N 31.29515 2.40657 0.38438
C 31.20774 3.38827 -0.53025
C 31.31491 2.83841 -1.93259
C 31.73669 1.30526 -1.76184
C 31.71236 1.20624 -0.22073
C 30.04582 2.92548 -2.78007
C 33.01416 0.83900 -2.51240
C 34.23419 1.50448 -1.91738
N 31.82795 0.72591 2.71438
C 31.90224 -0.27967 1.72575
C 31.98808 -1.57604 2.42895
C 31.93416 -1.23367 3.78849
C 31.80225 0.17490 3.92276
C 32.05111 -2.85596 1.80931
C 31.94813 -1.74444 5.14038
O 32.12582 -2.85038 5.64936
C 31.52405 -0.57311 6.12756
C 32.50289 -0.55078 7.26944
O 33.69615 -0.26040 7.07345
O 31.82968 -0.66167 8.42913
C 32.75666 -0.63339 9.59176
H 29.50000 5.95129 4.90100
H 31.14981 5.26228 -1.08355
H 32.03981 -0.88914 -0.18766
H 30.08649 1.82551 7.54830
H 29.87260 4.59456 7.07531
H 28.11022 2.27838 6.39012
H 27.98955 3.65979 5.28041
H 27.64301 3.92413 6.96258
H 32.17118 4.01242 7.35517
H 32.73211 2.31652 7.58855
H 30.73132 2.86064 9.54003
H 31.55561 4.36272 9.31828
H 29.87929 7.94323 4.32739
H 29.52218 8.70435 2.81333
H 31.17437 8.86603 3.45433
H 30.46939 9.52659 0.96886
H 31.74436 9.82912 -0.34630
H 32.17671 9.36411 1.32411
H 32.08512 3.35450 -2.49253
H 30.95662 0.62432 -2.13284
H 30.19138 3.47591 -3.72870
H 29.26994 3.38998 -2.18611
H 29.59672 1.96811 -3.03884
H 32.97197 1.14779 -3.55978
H 33.15448 -0.23670 -2.49919
H 34.25209 2.47816 -2.41610
H 35.13103 0.93013 -2.14062
H 34.09971 1.68597 -0.84470
H 32.80250 -3.42325 2.34231
H 32.29011 -2.77401 0.75104
H 31.02729 -3.20265 1.97326
H 30.50736 -0.78008 6.46385
H 32.56846 -1.54163 10.17260
H 32.57381 0.33402 10.09617
H 33.81718 -0.72759 9.38961

