%nproc=24
%mem=175gb
#p cam-b3lyp/Def2SVP td=(nstates=5)

TDDFT excited states in gaussian

0 1
Mg 15.77363 1.41415 1.20320
C 15.98336 -1.63757 -0.67353
C 14.85653 -0.47629 3.89017
C 15.14409 4.10757 2.75773
C 15.58296 3.10778 -1.83669
N 15.49201 -0.76556 1.45185
C 15.66026 -1.83269 0.68551
C 15.55046 -3.18714 1.43581
C 14.64798 -2.70412 2.67318
C 15.04418 -1.22941 2.70370
C 13.15565 -2.79220 2.40019
C 16.94623 -3.71928 1.91607
C 16.95345 -5.17732 2.38062
H 18.13632 -5.98896 2.10761
N 15.57860 1.75910 3.14782
C 15.22086 0.87192 4.09977
C 15.20278 1.62381 5.36408
C 15.41851 3.06382 5.05658
C 15.36689 3.03478 3.60862
C 15.07446 0.95952 6.70410
C 15.62300 4.26969 5.92275
O 15.55285 5.45865 5.44915
C 15.81506 4.02037 7.35887
N 15.20301 3.30923 0.56649
C 15.04599 4.31538 1.44452
C 14.90562 5.64123 0.73544
C 15.24456 5.34565 -0.79927
C 15.44393 3.81594 -0.72433
C 13.53297 6.30641 0.83423
C 16.36159 6.20556 -1.45156
C 17.69854 5.87335 -0.82900
N 15.96385 0.88966 -0.88409
C 15.82227 1.74881 -1.99580
C 15.92512 0.91181 -3.20876
C 16.09775 -0.38983 -2.71437
C 16.08196 -0.36846 -1.29353
C 15.80913 1.37337 -4.55026
C 16.27910 -1.77848 -3.07138
O 16.45631 -2.38853 -4.12502
C 16.08648 -2.66509 -1.76631
C 17.22405 -3.64694 -1.69973
O 18.39143 -3.25146 -1.53414
O 16.72556 -4.89442 -1.62436
C 17.81547 -5.90321 -1.54523
H 14.34343 -0.94823 4.72855
H 15.03173 5.07948 3.24379
H 15.63162 3.57382 -2.82315
H 15.04091 -3.97027 0.88732
H 14.94469 -3.19780 3.59492
H 12.94872 -3.05445 1.37328
H 12.75655 -1.81254 2.62828
H 12.68342 -3.48177 3.10576
H 17.21510 -3.22114 2.85645
H 17.68978 -3.57856 1.15582
H 16.04361 -5.71048 2.07917
H 16.92426 -5.19369 3.47282
H 14.76537 -0.08842 6.60563
H 14.23805 1.44194 7.22137
H 15.97448 1.06376 7.31382
H 14.95228 3.48750 7.75144
H 16.03405 4.99558 7.79806
H 16.67874 3.35827 7.48657
H 15.61643 6.36246 1.11971
H 14.37404 5.51763 -1.44924
H 13.57183 7.32607 1.26185
H 12.88728 5.67056 1.42526
H 12.98720 6.38085 -0.10481
H 16.18432 7.26643 -1.25842
H 16.42997 6.08108 -2.52711
H 17.70696 6.48464 0.07838
H 18.51153 6.14852 -1.49785
H 17.73811 4.82264 -0.51898
H 16.59197 0.88594 -5.11601
H 15.89246 2.45672 -4.60659
H 14.80036 1.02628 -4.78941
H 15.11982 -3.16347 -1.84858
H 17.65569 -6.61111 -2.36439
H 17.77513 -6.30648 -0.51591
H 18.82523 -5.56721 -1.75000

