%nproc=24
%mem=175gb
#p cam-b3lyp/Def2SVP td=(nstates=5)

TDDFT excited states in gaussian

0 1
Mg 7.89122 0.70589 0.59313
C 7.71587 2.80160 -2.31485
C 7.40542 -1.95803 -1.48105
C 7.59079 -1.11969 3.17081
C 7.22155 3.54106 2.50599
N 7.61106 0.56730 -1.59652
C 7.62455 1.42455 -2.60612
C 7.61596 0.76408 -4.01085
C 6.94712 -0.64040 -3.61214
C 7.37307 -0.70676 -2.14693
C 5.42861 -0.62114 -3.66769
C 9.06179 0.56842 -4.58820
C 9.11779 0.21610 -6.07631
H 10.22004 0.74403 -6.87557
N 8.03675 -1.26287 0.79659
C 7.82781 -2.19691 -0.15482
C 8.04043 -3.49558 0.50275
C 8.23040 -3.25819 1.95955
C 7.93281 -1.84201 2.03687
C 8.12809 -4.78750 -0.25665
C 8.60399 -4.15959 3.09715
O 8.47889 -3.79013 4.31808
C 9.03220 -5.52045 2.74192
N 7.25988 1.10016 2.53434
C 7.27519 0.13939 3.47487
C 7.04370 0.71858 4.85012
C 7.11066 2.30564 4.66475
C 7.28827 2.37412 3.13205
C 5.72184 0.33975 5.51763
C 8.11804 3.07698 5.56078
C 9.53423 2.71730 5.17290
N 7.71299 2.82670 0.22108
C 7.40225 3.83432 1.16035
C 7.28012 5.10304 0.41345
C 7.50739 4.73864 -0.92224
C 7.73380 3.33813 -1.00467
C 6.94732 6.36894 0.97279
C 7.59673 5.21857 -2.28252
O 7.57963 6.32741 -2.81536
C 7.61051 3.96571 -3.26055
C 8.72234 4.16419 -4.25401
O 9.90879 4.17319 -3.88135
O 8.21830 4.09296 -5.49949
C 9.28475 4.27285 -6.52035
H 7.03268 -2.83636 -2.00875
H 7.58276 -1.68521 4.10547
H 7.11141 4.48590 3.04248
H 7.00455 1.27125 -4.74755
H 7.38596 -1.46060 -4.17432
H 5.04477 0.37116 -3.85244
H 5.09438 -0.98274 -2.70406
H 5.06907 -1.34660 -4.40307
H 9.49681 -0.34491 -4.16238
H 9.66802 1.43278 -4.39843
H 8.15914 0.39438 -6.57847
H 9.27436 -0.86107 -6.17224
H 7.78521 -4.66958 -1.29199
H 7.40192 -5.47295 0.19357
H 9.12062 -5.24011 -0.20471
H 8.23790 -6.01618 2.18892
H 9.34272 -5.98346 3.68057
H 9.89117 -5.45146 2.06514
H 7.82422 0.41159 5.53544
H 6.14605 2.78334 4.89097
H 5.85386 -0.14585 6.50294
H 5.17305 -0.30661 4.84563
H 5.02605 1.16397 5.66503
H 7.99811 2.78193 6.60611
H 8.00002 4.15445 5.51470
H 9.70937 1.78386 5.71613
H 10.22719 3.49422 5.48951
H 9.60424 2.49361 4.10205
H 7.61237 7.09324 0.52157
H 7.04219 6.36204 2.05663
H 5.90564 6.45593 0.65246
H 6.63387 3.91642 -3.74357
H 8.97347 5.10053 -7.16512
H 9.41166 3.28289 -6.99744
H 10.25172 4.62307 -6.17863

