%nproc=24
%mem=175gb
#p cam-b3lyp/Def2SVP td=(nstates=5)

TDDFT excited states in gaussian

0 1
Mg 10.50715 0.95058 0.80739
C 8.27156 -1.62378 1.92714
C 7.81243 3.03933 0.70642
C 12.35708 3.10739 -0.60448
C 12.74063 -1.57085 -0.08687
N 8.36992 0.63242 1.27990
C 7.64736 -0.37066 1.75537
C 6.19255 0.01032 2.13999
C 6.02131 1.29437 1.19091
C 7.48650 1.70960 1.07477
C 5.51037 0.95180 -0.19867
C 6.05583 0.39376 3.65535
C 4.61723 0.47676 4.17044
H 4.34310 0.05337 5.54086
N 10.27063 2.91066 0.60560
C 9.10734 3.59476 0.61127
C 9.46945 5.00588 0.40688
C 10.92703 5.07867 0.11554
C 11.24439 3.66903 0.00462
C 8.48868 6.13002 0.57371
C 11.87543 6.22727 -0.05012
O 13.05066 6.06549 -0.53538
C 11.35498 7.56078 0.28510
N 12.19751 0.78966 -0.39225
C 12.84057 1.88586 -0.83129
C 14.17546 1.52810 -1.43994
C 14.40278 -0.01769 -1.09869
C 13.06043 -0.32225 -0.39816
C 14.29646 1.73900 -2.94900
C 15.72043 -0.39014 -0.36537
C 15.71026 0.17897 1.03513
N 10.61447 -1.19280 1.05730
C 11.62517 -2.05734 0.58281
C 11.20125 -3.43699 0.89790
C 9.95268 -3.27956 1.51820
C 9.61256 -1.90062 1.56684
C 11.91644 -4.62276 0.56839
C 8.84021 -3.96710 2.13334
O 8.60770 -5.13280 2.45086
C 7.64460 -2.93509 2.31187
C 7.11597 -3.07455 3.71315
O 7.82442 -2.77085 4.68909
O 5.79671 -3.33412 3.66261
C 5.22451 -3.47001 5.02861
H 7.00292 3.71213 0.42196
H 13.08167 3.81757 -1.00956
H 13.42642 -2.40589 -0.24518
H 5.44717 -0.73629 1.89350
H 5.44201 2.07292 1.68042
H 5.45887 -0.11512 -0.35731
H 6.21046 1.40361 -0.88918
H 4.54984 1.44298 -0.37882
H 6.36400 1.43864 3.78951
H 6.62186 -0.27803 4.27092
H 3.90362 0.01679 3.47608
H 4.32029 1.52785 4.20269
H 7.45745 5.75964 0.62647
H 8.51854 6.71996 -0.34875
H 8.73232 6.77993 1.41688
H 10.48432 7.77388 -0.33054
H 12.20504 8.23899 0.18862
H 11.01014 7.55047 1.32510
H 14.97282 2.10793 -0.99148
H 14.43009 -0.63596 -2.00799
H 15.12958 2.41039 -3.23047
H 13.35531 2.12636 -3.31607
H 14.41578 0.82891 -3.53440
H 16.57719 0.05667 -0.87574
H 15.89831 -1.45907 -0.31301
H 16.04244 1.21053 0.88473
H 16.39894 -0.36800 1.67590
H 14.69124 0.21614 1.43745
H 11.87622 -5.26287 1.43968
H 12.94298 -4.40172 0.28355
H 11.32334 -4.97942 -0.27794
H 6.88896 -3.17648 1.56333
H 4.73193 -4.44627 5.07300
H 4.58787 -2.57743 5.17598
H 5.91855 -3.54543 5.85750

