%nproc=24
%mem=175gb
#p cam-b3lyp/Def2SVP td=(nstates=5)

TDDFT excited states in gaussian

0 1
Mg 0.00000 0.00000 0.00000
C -0.21700 -2.21800 2.80100
C -1.25500 2.44200 2.02600
C -0.24500 1.85000 -2.56400
C 0.14600 -2.82400 -2.03700
N -0.61700 -0.00900 2.12600
C -0.59400 -0.90800 3.10500
C -0.93600 -0.30900 4.50200
C -1.77300 0.96400 4.03200
C -1.15500 1.16800 2.66000
C -3.26300 0.68500 3.86300
C 0.34500 0.11000 5.29900
C 0.12400 0.39700 6.78700
H 1.16800 0.03300 7.73300
N -0.18500 1.96100 -0.15200
C -0.70300 2.80000 0.77700
C -0.62000 4.15600 0.19300
C -0.18700 4.01500 -1.22500
C -0.21400 2.58300 -1.38000
C -0.88700 5.40600 0.97400
C 0.18100 5.01300 -2.27700
O 0.30300 4.69000 -3.50800
C 0.31000 6.41400 -1.83700
N -0.26500 -0.41300 -2.02900
C -0.27900 0.56900 -2.93700
C -0.19600 0.02400 -4.33200
C 0.12400 -1.53300 -4.18000
C 0.08600 -1.63200 -2.63500
C -1.45100 0.20500 -5.19700
C 1.37300 -2.07000 -4.92300
C 2.62600 -1.49000 -4.30600
N 0.15000 -2.14400 0.30300
C 0.17300 -3.13600 -0.68800
C 0.17300 -4.43800 0.00400
C 0.13300 -4.11100 1.35800
C 0.08300 -2.69500 1.50200
C 0.14900 -5.71500 -0.62300
C 0.09600 -4.62900 2.71600
O 0.20800 -5.74700 3.22100
C -0.25500 -3.42800 3.70100
C 0.71700 -3.48200 4.84800
O 1.93100 -3.25500 4.66900
O 0.03800 -3.55600 6.00300
C 0.94300 -3.58300 7.18300
H -1.85900 3.22000 2.49700
H -0.21800 2.45300 -3.47400
H 0.27600 -3.74700 -2.60500
H -1.55400 -0.94900 5.13200
H -1.58500 1.83100 4.66500
H -3.48400 -0.37700 3.96900
H -3.51100 1.02700 2.85800
H -3.85200 1.30100 4.54300
H 0.66900 1.09600 4.96600
H 1.13000 -0.63900 5.18900
H -0.84400 0.02600 7.12500
H 0.06200 1.47700 6.92100
H -1.34400 5.18600 1.93800
H -1.65100 5.96300 0.43200
H 0.00700 6.02000 1.08400
H -0.63500 6.74400 -1.40500
H 0.66500 6.97000 -2.70400
H 1.04800 6.46600 -1.03600
H 0.60800 0.50100 -4.89100
H -0.69200 -2.15600 -4.54700
H -1.26700 0.74000 -6.12900
H -2.20400 0.71400 -4.59600
H -1.96700 -0.72000 -5.45300
H 1.35600 -1.75900 -5.96700
H 1.45200 -3.15700 -4.90200
H 2.71400 -0.52200 -4.79800
H 3.48700 -2.12100 -4.52900
H 2.49500 -1.30300 -3.24000
H 0.86700 -6.33300 -0.08400
H 0.40400 -5.64200 -1.68000
H -0.89100 -5.99900 -0.46300
H -1.28300 -3.58100 4.02800
H 0.69800 -4.47800 7.75500
H 0.83300 -2.61900 7.68000
H 2.00000 -3.75400 6.97600
Mg 10.50836 0.95072 0.80773
C 8.39702 -1.58026 2.22739
C 7.85020 3.07741 1.02212
C 12.19493 3.06708 -0.84875
C 12.57835 -1.61119 -0.33135
N 8.44329 0.66811 1.54790
C 7.77287 -0.31986 2.12130
C 6.38300 0.08582 2.68098
C 6.11106 1.36329 1.74663
C 7.55547 1.75606 1.44316
C 5.42529 1.01520 0.43595
C 6.44260 0.48538 4.19716
C 5.08124 0.59411 4.88755
H 4.97565 0.18759 6.28615
N 10.27439 2.91206 0.61542
C 9.13018 3.61303 0.75925
C 9.48245 5.01676 0.49542
C 10.89279 5.06561 0.02290
C 11.17501 3.65053 -0.11126
C 8.54536 6.15656 0.77136
C 11.82805 6.19869 -0.27308
O 12.93086 6.01530 -0.89999
C 11.37150 7.54271 0.10990
N 12.03254 0.75401 -0.59245
C 12.62990 1.83658 -1.12078
C 13.87300 1.45376 -1.88793
C 14.12084 -0.09191 -1.56071
C 12.87309 -0.37034 -0.69412
C 13.80648 1.64875 -3.40251
C 15.51504 -0.47660 -0.99423
C 15.68823 0.10567 0.39009
N 10.61777 -1.19156 1.06602
C 11.54939 -2.07511 0.47823
C 11.15011 -3.44544 0.85927
C 9.99144 -3.26407 1.62938
C 9.67843 -1.87994 1.70495
C 11.80252 -4.64452 0.45592
C 8.95594 -3.92957 2.38671
O 8.74967 -5.08874 2.74380
C 7.80597 -2.87866 2.70221
C 7.45554 -2.99729 4.16017
O 8.28483 -2.69481 5.03618
O 6.13704 -3.23811 4.27827
C 5.73903 -3.35287 5.70663
H 7.02038 3.75921 0.83390
H 12.87231 3.76283 -1.34931
H 13.22772 -2.45757 -0.56507
H 5.60275 -0.65214 2.53816
H 5.60813 2.15473 2.29622
H 5.34015 -0.05230 0.29688
H 6.03913 1.45029 -0.34184
H 4.45634 1.51859 0.37216
H 6.77900 1.52688 4.28003
H 7.07245 -0.18878 4.74436
H 4.28010 0.13809 4.29327
H 4.80465 1.64967 4.94509
H 7.52409 5.80172 0.95708
H 8.46705 6.73734 -0.15407
H 8.90147 6.81071 1.57007
H 10.43338 7.76268 -0.39409
H 12.21165 8.20755 -0.09990
H 11.15978 7.54715 1.18496
H 14.72795 2.02611 -1.54942
H 14.02563 -0.71899 -2.45934
H 14.60652 2.30528 -3.79362
H 12.83193 2.04630 -3.65300
H 13.83932 0.73157 -3.98809
H 16.30684 -0.04710 -1.61289
H 15.68390 -1.54747 -0.95271
H 16.01256 1.13085 0.18779
H 16.44456 -0.44524 0.94552
H 14.72833 0.16143 0.91652
H 11.86346 -5.27580 1.33243
H 12.78803 -4.44111 0.04222
H 11.10322 -5.00043 -0.30539
H 6.95923 -3.11603 2.05702
H 5.24301 -4.32141 5.82325
H 5.13779 -2.44978 5.92271
H 6.53053 -3.43061 6.44279

