%nproc=24
%mem=175gb
#p cam-b3lyp/Def2SVP td=(nstates=5)

TDDFT excited states in gaussian

0 1
Mg 10.50984 0.95498 0.80439
C 12.47259 0.05203 3.66993
C 7.84977 1.27878 2.91480
C 8.65672 1.31278 -1.74617
C 12.96966 -0.52322 -1.17296
N 10.31211 0.67531 2.98956
C 11.14003 0.39153 3.98372
C 10.52479 0.55454 5.39952
C 8.97710 0.37291 5.01152
C 9.03364 0.83642 3.55734
C 8.51705 -1.07526 5.03368
C 10.80093 1.97269 6.01157
C 10.49931 2.09771 7.50662
H 11.35596 2.95612 8.32009
N 8.68549 1.71860 0.63936
C 7.74289 1.78961 1.60256
C 6.57097 2.41771 0.97308
C 6.84142 2.56144 -0.48326
C 8.09062 1.83501 -0.59233
C 5.38037 2.88790 1.75718
C 6.09238 3.22971 -1.59616
O 6.39117 3.02673 -2.82593
C 4.93967 4.05533 -1.20743
N 10.66525 0.28282 -1.15683
C 9.74888 0.62473 -2.07948
C 10.21158 0.25878 -3.46958
C 11.74055 -0.18252 -3.31119
C 11.87704 -0.07586 -1.77647
C 9.42848 -0.85841 -4.15880
C 12.78113 0.55377 -4.19875
C 12.89036 2.00044 -3.77379
N 12.46987 0.10802 1.13449
C 13.31853 -0.47953 0.17083
C 14.49147 -1.01469 0.89210
C 14.23086 -0.71938 2.23871
C 12.97412 -0.06555 2.35108
C 15.58210 -1.71451 0.30311
C 14.72820 -0.82155 3.59182
O 15.78039 -1.20108 4.10425
C 13.55357 -0.43950 4.59216
C 14.10259 0.52669 5.60585
O 14.48152 1.65926 5.25899
O 13.88863 0.03821 6.84116
C 14.40597 0.96648 7.88159
H 6.90409 1.18798 3.44989
H 8.10810 1.50787 -2.67053
H 13.82607 -0.91125 -1.72853
H 10.82068 -0.20465 6.11356
H 8.34287 1.03285 5.59769
H 9.33949 -1.75687 5.19227
H 8.05878 -1.25312 4.06963
H 7.72270 -1.20716 5.77392
H 10.06714 2.68431 5.61171
H 11.81039 2.28053 5.81962
H 10.37123 1.11886 7.98453
H 9.52751 2.58306 7.62516
H 5.39460 2.49825 2.78254
H 4.49637 2.42673 1.30360
H 5.26336 3.97348 1.73494
H 4.22436 3.44340 -0.66307
H 4.58874 4.52046 -2.13068
H 5.28286 4.83074 -0.51347
H 10.15949 1.11399 -4.13216
H 11.88736 -1.24220 -3.56685
H 8.99936 -0.55430 -5.13217
H 8.64886 -1.19311 -3.48744
H 9.98968 -1.77430 -4.33601
H 12.45276 0.56039 -5.24100
H 13.76680 0.10116 -4.17451
H 12.05434 2.47493 -4.29631
H 13.84292 2.42144 -4.08909
H 12.71100 2.10919 -2.69785
H 16.48369 -1.32358 0.75567
H 15.59451 -1.59385 -0.77812
H 15.33937 -2.73859 0.59910
H 13.20368 -1.36322 5.05463
H 15.09972 0.39349 8.50454
H 13.51142 1.38621 8.37895
H 15.03979 1.78252 7.55478

