%nproc=24
%mem=175gb
#p cam-b3lyp/Def2SVP td=(nstates=5)

TDDFT excited states in gaussian

0 1
Mg 0.00000 0.00000 0.00000
C -0.21700 -2.21800 2.80100
C -1.25500 2.44200 2.02600
C -0.24500 1.85000 -2.56400
C 0.14600 -2.82400 -2.03700
N -0.61700 -0.00900 2.12600
C -0.59400 -0.90800 3.10500
C -0.93600 -0.30900 4.50200
C -1.77300 0.96400 4.03200
C -1.15500 1.16800 2.66000
C -3.26300 0.68500 3.86300
C 0.34500 0.11000 5.29900
C 0.12400 0.39700 6.78700
H 1.16800 0.03300 7.73300
N -0.18500 1.96100 -0.15200
C -0.70300 2.80000 0.77700
C -0.62000 4.15600 0.19300
C -0.18700 4.01500 -1.22500
C -0.21400 2.58300 -1.38000
C -0.88700 5.40600 0.97400
C 0.18100 5.01300 -2.27700
O 0.30300 4.69000 -3.50800
C 0.31000 6.41400 -1.83700
N -0.26500 -0.41300 -2.02900
C -0.27900 0.56900 -2.93700
C -0.19600 0.02400 -4.33200
C 0.12400 -1.53300 -4.18000
C 0.08600 -1.63200 -2.63500
C -1.45100 0.20500 -5.19700
C 1.37300 -2.07000 -4.92300
C 2.62600 -1.49000 -4.30600
N 0.15000 -2.14400 0.30300
C 0.17300 -3.13600 -0.68800
C 0.17300 -4.43800 0.00400
C 0.13300 -4.11100 1.35800
C 0.08300 -2.69500 1.50200
C 0.14900 -5.71500 -0.62300
C 0.09600 -4.62900 2.71600
O 0.20800 -5.74700 3.22100
C -0.25500 -3.42800 3.70100
C 0.71700 -3.48200 4.84800
O 1.93100 -3.25500 4.66900
O 0.03800 -3.55600 6.00300
C 0.94300 -3.58300 7.18300
H -1.85900 3.22000 2.49700
H -0.21800 2.45300 -3.47400
H 0.27600 -3.74700 -2.60500
H -1.55400 -0.94900 5.13200
H -1.58500 1.83100 4.66500
H -3.48400 -0.37700 3.96900
H -3.51100 1.02700 2.85800
H -3.85200 1.30100 4.54300
H 0.66900 1.09600 4.96600
H 1.13000 -0.63900 5.18900
H -0.84400 0.02600 7.12500
H 0.06200 1.47700 6.92100
H -1.34400 5.18600 1.93800
H -1.65100 5.96300 0.43200
H 0.00700 6.02000 1.08400
H -0.63500 6.74400 -1.40500
H 0.66500 6.97000 -2.70400
H 1.04800 6.46600 -1.03600
H 0.60800 0.50100 -4.89100
H -0.69200 -2.15600 -4.54700
H -1.26700 0.74000 -6.12900
H -2.20400 0.71400 -4.59600
H -1.96700 -0.72000 -5.45300
H 1.35600 -1.75900 -5.96700
H 1.45200 -3.15700 -4.90200
H 2.71400 -0.52200 -4.79800
H 3.48700 -2.12100 -4.52900
H 2.49500 -1.30300 -3.24000
H 0.86700 -6.33300 -0.08400
H 0.40400 -5.64200 -1.68000
H -0.89100 -5.99900 -0.46300
H -1.28300 -3.58100 4.02800
H 0.69800 -4.47800 7.75500
H 0.83300 -2.61900 7.68000
H 2.00000 -3.75400 6.97600
Mg 7.88951 0.71774 0.60151
C 7.40322 0.81455 4.15583
C 6.72515 3.92235 0.50516
C 7.87945 0.51359 -2.56483
C 7.91533 -2.75910 0.83945
N 7.18665 2.08507 2.19167
C 7.10488 2.03388 3.51267
C 6.75695 3.38732 4.18848
C 6.02261 4.09402 2.94744
C 6.70777 3.35080 1.80252
C 4.53286 3.80095 2.88332
C 8.03636 4.18253 4.62753
C 7.77016 5.36158 5.56600
H 8.75344 5.66140 6.60318
N 7.84954 2.14458 -0.77729
C 7.36123 3.39519 -0.64019
C 7.54760 4.04534 -1.94661
C 8.03497 3.02431 -2.91341
C 7.91783 1.82373 -2.11030
C 7.34489 5.51746 -2.15921
C 8.51361 3.11198 -4.33094
O 8.66380 2.06633 -5.05681
C 8.71183 4.46394 -4.87354
N 7.68481 -0.88448 -0.70744
C 7.77003 -0.70591 -2.03740
C 7.86908 -2.02815 -2.76007
C 8.07703 -3.12768 -1.61755
C 7.96816 -2.22160 -0.37153
C 6.66334 -2.40880 -3.61895
C 9.31558 -4.05553 -1.75081
C 10.58353 -3.25385 -1.56376
N 7.88274 -0.73172 2.20372
C 7.87001 -2.13846 2.08128
C 7.75167 -2.69315 3.44537
C 7.68003 -1.56137 4.27146
C 7.72852 -0.38441 3.47653
C 7.67450 -4.07509 3.77764
C 7.56371 -1.09472 5.63432
O 7.57042 -1.63331 6.74049
C 7.25195 0.46368 5.61000
C 8.17098 1.13660 6.59239
O 9.39989 1.14886 6.40207
O 7.43577 1.83775 7.47457
C 8.30327 2.53220 8.46301
H 6.16340 4.84134 0.33553
H 7.98503 0.38585 -3.64465
H 8.01511 -3.83381 1.00597
H 6.07796 3.31381 5.02952
H 6.25258 5.15545 2.90468
H 4.23456 3.06753 3.61766
H 4.34853 3.43146 1.88305
H 3.96184 4.72965 2.97154
H 8.43901 4.72041 3.75960
H 8.76042 3.52564 5.06896
H 6.75996 5.32948 5.99191
H 7.78417 6.28278 4.97846
H 6.82782 5.97922 -1.30902
H 6.64485 5.62647 -2.99463
H 8.27230 6.03920 -2.40486
H 7.77688 5.01635 -4.81718
H 9.14041 4.32007 -5.86726
H 9.42955 4.99432 -4.23778
H 8.72573 -2.04350 -3.42265
H 7.23227 -3.83048 -1.56982
H 6.92407 -2.59996 -4.67703
H 5.92852 -1.61813 -3.54525
H 6.10470 -3.27643 -3.27204
H 9.36320 -4.48159 -2.75597
H 9.31236 -4.88358 -1.04987
H 10.75261 -2.82445 -2.55579
H 11.40641 -3.90180 -1.26866
H 10.42431 -2.42233 -0.86742
H 8.31907 -4.22602 4.63336
H 7.97122 -4.70262 2.93983
H 6.60745 -4.16322 3.99881
H 6.20233 0.59200 5.87721
H 7.97035 2.21760 9.45693
H 8.22603 3.60942 8.22347
H 9.35042 2.25469 8.49305

