%nproc=24
%mem=175gb
#p cam-b3lyp/Def2SVP td=(nstates=5)

TDDFT excited states in gaussian

0 1
Mg 13.14256 1.18574 0.98868
C 15.84871 -1.14694 0.65045
C 15.46661 3.67693 0.82333
C 10.84498 3.24319 1.73401
C 11.22492 -1.43515 2.25331
N 15.34263 1.14433 0.76458
C 16.25553 0.20193 0.58339
C 17.67090 0.73593 0.23536
C 17.54113 2.20021 0.88182
C 16.02667 2.37490 0.78929
C 17.93880 2.24830 2.34772
C 17.91749 0.81114 -1.31240
C 19.37603 1.02813 -1.72143
H 19.86192 0.38018 -2.93656
N 13.05955 3.15562 0.76224
C 14.10085 4.01121 0.69193
C 13.51143 5.35112 0.54563
C 12.03600 5.23404 0.70085
C 11.92238 3.84590 1.10115
C 14.32571 6.56560 0.20591
C 10.91415 6.21325 0.53112
O 9.72943 5.95898 0.94901
C 11.26376 7.51570 -0.05444
N 11.37172 0.99419 2.06096
C 10.52709 2.03216 2.19190
C 9.20100 1.58783 2.76151
C 9.24676 -0.01075 2.76005
C 10.68939 -0.22215 2.25062
C 8.88178 2.08628 4.17077
C 8.08995 -0.74727 2.03066
C 8.17161 -0.49078 0.54307
N 13.38526 -0.94871 1.21943
C 12.46838 -1.85390 1.79739
C 13.12620 -3.17616 1.83380
C 14.39872 -2.94187 1.29131
C 14.53231 -1.56638 0.96014
C 12.56384 -4.37071 2.36571
C 15.66317 -3.54330 0.93333
O 16.10125 -4.69265 0.90466
C 16.70358 -2.38340 0.61937
C 17.40054 -2.72109 -0.67010
O 16.76835 -2.75362 -1.74056
O 18.72974 -2.73583 -0.46180
C 19.46501 -3.05528 -1.71446
H 16.12957 4.52215 1.01034
H 9.98172 3.88848 1.91249
H 10.65821 -2.32283 2.54233
H 18.48714 0.19554 0.69960
H 18.04872 2.94601 0.27560
H 18.13102 1.26295 2.74556
H 17.10627 2.70873 2.86342
H 18.78892 2.92251 2.48577
H 17.47365 1.73669 -1.70113
H 17.53062 -0.06099 -1.80266
H 20.06813 0.85212 -0.88899
H 19.51435 2.08403 -1.96629
H 15.40005 6.37349 0.31674
H 14.10504 7.32172 0.96713
H 14.08360 6.97337 -0.77785
H 12.01840 7.99804 0.56227
H 10.31653 8.04422 -0.17814
H 11.72044 7.34673 -1.03602
H 8.38121 1.91650 2.13459
H 9.21056 -0.42034 3.78022
H 7.93151 2.64985 4.22960
H 9.70746 2.69636 4.51224
H 8.83501 1.31221 4.93486
H 7.12439 -0.35605 2.36051
H 8.08072 -1.81778 2.20644
H 7.67435 0.47744 0.43192
H 7.64843 -1.26888 -0.00910
H 9.21219 -0.36574 0.22180
H 12.79645 -5.16266 1.66628
H 11.49045 -4.27300 2.51425
H 13.10511 -4.43596 3.31336
H 17.39826 -2.33046 1.45853
H 20.09974 -3.92075 -1.50050
H 19.97362 -2.11828 -2.00955
H 18.88717 -3.41962 -2.55577

