%nproc=24
%mem=175gb
#p cam-b3lyp/Def2SVP td=(nstates=5)

TDDFT excited states in gaussian

0 1
Mg 31.54143 2.84352 2.39869
C 32.45266 0.70489 5.13273
C 31.36544 5.39870 4.65139
C 30.30397 4.65038 0.10274
C 30.68492 -0.02816 0.61949
N 31.88737 2.91764 4.58206
C 32.28950 2.05582 5.50396
C 32.60780 2.69181 6.88373
C 31.69429 4.00664 6.75894
C 31.67109 4.14471 5.23806
C 30.26857 3.79691 7.24130
C 34.12556 3.05926 7.03668
C 34.56498 3.39654 8.46318
H 35.90377 3.00031 8.89112
N 31.39279 4.81749 2.25747
C 31.35870 5.70567 3.27297
C 31.22134 7.02914 2.64548
C 31.01145 6.83624 1.18485
C 30.87074 5.39508 1.12682
C 31.37261 8.31194 3.41030
C 30.93551 7.79192 0.03285
O 30.50906 7.42554 -1.11899
C 31.28660 9.19094 0.31741
N 30.42977 2.39853 0.69912
C 30.06283 3.36576 -0.15980
C 29.51528 2.78000 -1.43943
C 29.81645 1.21152 -1.35732
C 30.43317 1.14597 0.05716
C 28.02280 2.99915 -1.68616
C 30.60675 0.58388 -2.53806
C 32.02291 1.11280 -2.55029
N 31.72502 0.71243 2.70331
C 31.27699 -0.31390 1.84309
C 31.52256 -1.59749 2.53195
C 32.07968 -1.22484 3.76452
C 32.15599 0.19181 3.84685
C 31.19259 -2.88773 2.02943
C 32.61077 -1.70739 5.01903
O 32.87620 -2.81646 5.48080
C 32.75908 -0.47540 6.01230
C 34.12445 -0.54610 6.63942
O 35.14669 -0.40182 5.94602
O 33.99435 -0.55459 7.97859
C 35.32228 -0.61288 8.64570
H 31.06046 6.21662 5.30475
H 29.96241 5.22250 -0.76299
H 30.53595 -0.97233 0.09127
H 32.29675 2.10266 7.73809
H 32.17766 4.86795 7.21267
H 30.07184 2.76208 7.47915
H 29.63221 4.12631 6.43038
H 30.05350 4.46213 8.08246
H 34.31094 4.02526 6.54962
H 34.74791 2.28004 6.64156
H 33.81826 3.09329 9.20708
H 34.61630 4.48350 8.56263
H 31.35741 8.13868 4.49342
H 30.47331 8.90696 3.21777
H 32.24891 8.88576 3.10126
H 30.63247 9.57624 1.09595
H 31.25871 9.70126 -0.64730
H 32.30561 9.22117 0.71906
H 30.02511 3.19104 -2.30211
H 28.88979 0.61990 -1.32384
H 27.80916 3.51015 -2.64392
H 27.61878 3.56305 -0.85591
H 27.41461 2.09636 -1.67001
H 30.15844 0.87511 -3.49114
H 30.63288 -0.50039 -2.51242
H 31.92514 2.06776 -3.07524
H 32.68117 0.43280 -3.08725
H 32.37083 1.32962 -1.53363
H 32.03858 -3.52894 2.23836
H 30.97093 -2.85499 0.96474
H 30.30413 -3.10845 2.62708
H 31.96332 -0.55489 6.75394
H 35.30747 -1.48127 9.31156
H 35.46492 0.37892 9.11445
H 36.18434 -0.83497 8.02765

