%nproc=24
%mem=175gb
#p cam-b3lyp/Def2SVP td=(nstates=5)

TDDFT excited states in gaussian

0 1
Mg 0.00000 0.00000 0.00000
C -0.21700 -2.21800 2.80100
C -1.25500 2.44200 2.02600
C -0.24500 1.85000 -2.56400
C 0.14600 -2.82400 -2.03700
N -0.61700 -0.00900 2.12600
C -0.59400 -0.90800 3.10500
C -0.93600 -0.30900 4.50200
C -1.77300 0.96400 4.03200
C -1.15500 1.16800 2.66000
C -3.26300 0.68500 3.86300
C 0.34500 0.11000 5.29900
C 0.12400 0.39700 6.78700
H 1.16800 0.03300 7.73300
N -0.18500 1.96100 -0.15200
C -0.70300 2.80000 0.77700
C -0.62000 4.15600 0.19300
C -0.18700 4.01500 -1.22500
C -0.21400 2.58300 -1.38000
C -0.88700 5.40600 0.97400
C 0.18100 5.01300 -2.27700
O 0.30300 4.69000 -3.50800
C 0.31000 6.41400 -1.83700
N -0.26500 -0.41300 -2.02900
C -0.27900 0.56900 -2.93700
C -0.19600 0.02400 -4.33200
C 0.12400 -1.53300 -4.18000
C 0.08600 -1.63200 -2.63500
C -1.45100 0.20500 -5.19700
C 1.37300 -2.07000 -4.92300
C 2.62600 -1.49000 -4.30600
N 0.15000 -2.14400 0.30300
C 0.17300 -3.13600 -0.68800
C 0.17300 -4.43800 0.00400
C 0.13300 -4.11100 1.35800
C 0.08300 -2.69500 1.50200
C 0.14900 -5.71500 -0.62300
C 0.09600 -4.62900 2.71600
O 0.20800 -5.74700 3.22100
C -0.25500 -3.42800 3.70100
C 0.71700 -3.48200 4.84800
O 1.93100 -3.25500 4.66900
O 0.03800 -3.55600 6.00300
C 0.94300 -3.58300 7.18300
H -1.85900 3.22000 2.49700
H -0.21800 2.45300 -3.47400
H 0.27600 -3.74700 -2.60500
H -1.55400 -0.94900 5.13200
H -1.58500 1.83100 4.66500
H -3.48400 -0.37700 3.96900
H -3.51100 1.02700 2.85800
H -3.85200 1.30100 4.54300
H 0.66900 1.09600 4.96600
H 1.13000 -0.63900 5.18900
H -0.84400 0.02600 7.12500
H 0.06200 1.47700 6.92100
H -1.34400 5.18600 1.93800
H -1.65100 5.96300 0.43200
H 0.00700 6.02000 1.08400
H -0.63500 6.74400 -1.40500
H 0.66500 6.97000 -2.70400
H 1.04800 6.46600 -1.03600
H 0.60800 0.50100 -4.89100
H -0.69200 -2.15600 -4.54700
H -1.26700 0.74000 -6.12900
H -2.20400 0.71400 -4.59600
H -1.96700 -0.72000 -5.45300
H 1.35600 -1.75900 -5.96700
H 1.45200 -3.15700 -4.90200
H 2.71400 -0.52200 -4.79800
H 3.48700 -2.12100 -4.52900
H 2.49500 -1.30300 -3.24000
H 0.86700 -6.33300 -0.08400
H 0.40400 -5.64200 -1.68000
H -0.89100 -5.99900 -0.46300
H -1.28300 -3.58100 4.02800
H 0.69800 -4.47800 7.75500
H 0.83300 -2.61900 7.68000
H 2.00000 -3.75400 6.97600
Mg 15.77064 1.41371 1.20547
C 13.09259 1.37256 3.59406
C 17.66863 2.95537 3.58360
C 17.99618 1.87130 -1.00927
C 13.37534 0.93577 -1.28045
N 15.32623 2.03047 3.28257
C 14.29410 1.90758 4.10352
C 14.58963 2.31066 5.57313
C 15.82521 3.30130 5.30694
C 16.33371 2.71038 3.99357
C 15.40059 4.73790 5.05161
C 15.01587 1.08483 6.45498
C 15.01993 1.34760 7.96252
H 14.62734 0.26379 8.85902
N 17.70210 1.82974 1.39242
C 18.30621 2.43861 2.43435
C 19.73046 2.52852 2.07714
C 19.89084 2.07185 0.66986
C 18.50272 1.92303 0.28119
C 20.79125 2.93580 3.05809
C 21.09411 1.82398 -0.18857
O 20.99483 1.65937 -1.45580
C 22.40053 1.87254 0.48404
N 15.68183 1.61762 -0.86163
C 16.80274 1.75374 -1.59167
C 16.51445 1.60567 -3.06658
C 15.00035 1.09926 -3.15966
C 14.63094 1.12900 -1.66031
C 16.68001 2.87154 -3.90714
C 14.74328 -0.20783 -3.95847
C 15.35913 -1.38406 -3.23556
N 13.64941 1.00753 1.14696
C 12.83870 0.86952 -0.00099
C 11.44556 0.71568 0.46581
C 11.54030 0.79859 1.86318
C 12.89410 1.01074 2.23965
C 10.29975 0.57609 -0.36711
C 10.80148 0.76549 3.10485
O 9.63463 0.52933 3.41535
C 11.75637 1.26207 4.27446
C 11.63086 0.29426 5.41906
O 12.01552 -0.88208 5.29718
O 11.28155 0.96843 6.52985
C 11.15543 0.05287 7.69504
H 18.27509 3.64229 4.17457
H 18.73885 1.91339 -1.80935
H 12.58327 0.68407 -1.98893
H 13.78641 2.84286 6.06849
H 16.57972 3.20929 6.08387
H 14.32772 4.83318 4.97410
H 15.87398 5.02367 4.12140
H 15.81945 5.39663 5.81775
H 16.08316 0.88359 6.29646
H 14.40565 0.22952 6.23890
H 14.48898 2.27176 8.22128
H 16.04916 1.53199 8.27986
H 20.35444 3.37192 3.96495
H 21.34918 3.76056 2.60163
H 21.48521 2.12476 3.28896
H 22.53290 2.84807 0.94587
H 23.13057 1.58282 -0.27423
H 22.40350 1.13690 1.29610
H 17.16194 0.86182 -3.51441
H 14.35384 1.83698 -3.65729
H 17.39562 2.75049 -4.74219
H 16.99010 3.67663 -3.25429
H 15.76004 3.26402 -4.33705
H 15.22853 -0.15578 -4.93621
H 13.69122 -0.40854 -4.13136
H 16.40480 -1.35055 -3.55580
H 14.88250 -2.31346 -3.54064
H 15.34176 -1.23187 -2.15012
H 9.68930 -0.20229 0.07104
H 10.57921 0.33451 -1.39050
H 9.87457 1.57985 -0.28376
H 11.43863 2.26784 4.55205
H 10.15041 0.19367 8.10468
H 12.00780 0.29364 8.35780
H 11.15595 -1.01270 7.49753

