%nproc=24
%mem=175gb
#p cam-b3lyp/Def2SVP td=(nstates=5)

TDDFT excited states in gaussian

0 1
Mg 0.00000 0.00000 0.00000
C -0.21700 -2.21800 2.80100
C -1.25500 2.44200 2.02600
C -0.24500 1.85000 -2.56400
C 0.14600 -2.82400 -2.03700
N -0.61700 -0.00900 2.12600
C -0.59400 -0.90800 3.10500
C -0.93600 -0.30900 4.50200
C -1.77300 0.96400 4.03200
C -1.15500 1.16800 2.66000
C -3.26300 0.68500 3.86300
C 0.34500 0.11000 5.29900
C 0.12400 0.39700 6.78700
H 1.16800 0.03300 7.73300
N -0.18500 1.96100 -0.15200
C -0.70300 2.80000 0.77700
C -0.62000 4.15600 0.19300
C -0.18700 4.01500 -1.22500
C -0.21400 2.58300 -1.38000
C -0.88700 5.40600 0.97400
C 0.18100 5.01300 -2.27700
O 0.30300 4.69000 -3.50800
C 0.31000 6.41400 -1.83700
N -0.26500 -0.41300 -2.02900
C -0.27900 0.56900 -2.93700
C -0.19600 0.02400 -4.33200
C 0.12400 -1.53300 -4.18000
C 0.08600 -1.63200 -2.63500
C -1.45100 0.20500 -5.19700
C 1.37300 -2.07000 -4.92300
C 2.62600 -1.49000 -4.30600
N 0.15000 -2.14400 0.30300
C 0.17300 -3.13600 -0.68800
C 0.17300 -4.43800 0.00400
C 0.13300 -4.11100 1.35800
C 0.08300 -2.69500 1.50200
C 0.14900 -5.71500 -0.62300
C 0.09600 -4.62900 2.71600
O 0.20800 -5.74700 3.22100
C -0.25500 -3.42800 3.70100
C 0.71700 -3.48200 4.84800
O 1.93100 -3.25500 4.66900
O 0.03800 -3.55600 6.00300
C 0.94300 -3.58300 7.18300
H -1.85900 3.22000 2.49700
H -0.21800 2.45300 -3.47400
H 0.27600 -3.74700 -2.60500
H -1.55400 -0.94900 5.13200
H -1.58500 1.83100 4.66500
H -3.48400 -0.37700 3.96900
H -3.51100 1.02700 2.85800
H -3.85200 1.30100 4.54300
H 0.66900 1.09600 4.96600
H 1.13000 -0.63900 5.18900
H -0.84400 0.02600 7.12500
H 0.06200 1.47700 6.92100
H -1.34400 5.18600 1.93800
H -1.65100 5.96300 0.43200
H 0.00700 6.02000 1.08400
H -0.63500 6.74400 -1.40500
H 0.66500 6.97000 -2.70400
H 1.04800 6.46600 -1.03600
H 0.60800 0.50100 -4.89100
H -0.69200 -2.15600 -4.54700
H -1.26700 0.74000 -6.12900
H -2.20400 0.71400 -4.59600
H -1.96700 -0.72000 -5.45300
H 1.35600 -1.75900 -5.96700
H 1.45200 -3.15700 -4.90200
H 2.71400 -0.52200 -4.79800
H 3.48700 -2.12100 -4.52900
H 2.49500 -1.30300 -3.24000
H 0.86700 -6.33300 -0.08400
H 0.40400 -5.64200 -1.68000
H -0.89100 -5.99900 -0.46300
H -1.28300 -3.58100 4.02800
H 0.69800 -4.47800 7.75500
H 0.83300 -2.61900 7.68000
H 2.00000 -3.75400 6.97600
Mg 7.89087 0.71096 0.59169
C 7.43989 4.15993 -0.29166
C 7.32491 -0.04752 -2.68535
C 7.83533 -2.35319 1.41346
C 7.28822 1.62365 3.90070
N 7.45122 1.97950 -1.16609
C 7.36519 3.28163 -1.39277
C 7.26959 3.66838 -2.89306
C 6.67172 2.28963 -3.45918
C 7.20804 1.33513 -2.39430
C 5.15337 2.23461 -3.42883
C 8.67290 3.98593 -3.51906
C 8.62688 4.66688 -4.88871
H 9.65102 5.65760 -5.20821
N 8.10577 -0.92036 -0.51790
C 7.85203 -1.04623 -1.83739
C 8.14929 -2.44752 -2.17236
C 8.44133 -3.17975 -0.91011
C 8.11124 -2.16210 0.06739
C 8.21552 -2.94994 -3.58537
C 8.92403 -4.57048 -0.62893
O 8.88066 -5.07292 0.54942
C 9.36194 -5.35964 -1.78951
N 7.39621 -0.26615 2.35886
C 7.50865 -1.60181 2.46514
C 7.36499 -2.04883 3.90039
C 7.37384 -0.70742 4.77110
C 7.43403 0.33348 3.63167
C 6.10793 -2.85637 4.22297
C 8.42382 -0.61591 5.91207
C 9.81635 -0.54701 5.32768
N 7.62652 2.56414 1.67054
C 7.35929 2.71826 3.04855
C 7.14636 4.15969 3.29219
C 7.28283 4.74616 2.02494
C 7.54115 3.73887 1.05637
C 6.82149 4.75256 4.54482
C 7.25656 5.98712 1.28465
O 7.16882 7.17674 1.58605
C 7.23167 5.64879 -0.26819
C 8.25994 6.51085 -0.94793
O 9.47028 6.36264 -0.70360
O 7.66607 7.21436 -1.92914
C 8.64756 8.07645 -2.63999
H 6.93813 -0.41178 -3.63751
H 7.91310 -3.38321 1.76912
H 7.19248 1.99994 4.92144
H 6.59082 4.48462 -3.10939
H 7.08972 2.04818 -4.43300
H 4.72939 3.08768 -2.92024
H 4.90251 1.32015 -2.90742
H 4.75994 2.12091 -4.44304
H 9.16379 3.04354 -3.79416
H 9.26746 4.57083 -2.84451
H 7.62870 5.05715 -5.12167
H 8.80562 3.91164 -5.65791
H 7.79282 -2.22384 -4.29070
H 7.54444 -3.81331 -3.64954
H 9.22131 -3.26184 -3.87480
H 8.54246 -5.44319 -2.49938
H 9.75471 -6.29141 -1.37792
H 10.16549 -4.81619 -2.29901
H 8.20292 -2.66691 4.19864
H 6.41605 -0.55146 5.28893
H 6.32688 -3.84757 4.66304
H 5.52841 -2.96280 3.31558
H 5.40257 -2.36550 4.89134
H 8.39085 -1.51645 6.53021
H 8.27285 0.23267 6.57095
H 10.05755 -1.59761 5.14019
H 10.50930 -0.10402 6.04015
H 9.81202 -0.03203 4.35999
H 7.43050 5.64216 4.63552
H 6.99754 4.06364 5.36833
H 5.75671 4.95118 4.39629
H 6.22330 5.85088 -0.63138
H 8.26598 9.10106 -2.59267
H 8.76572 7.62884 -3.64470
H 9.62735 8.19476 -2.19227

