%nproc=24
%mem=175gb
#p cam-b3lyp/Def2SVP td=(nstates=5)

TDDFT excited states in gaussian

0 1
Mg 0.00000 0.00000 0.00000
C -0.21700 -2.21800 2.80100
C -1.25500 2.44200 2.02600
C -0.24500 1.85000 -2.56400
C 0.14600 -2.82400 -2.03700
N -0.61700 -0.00900 2.12600
C -0.59400 -0.90800 3.10500
C -0.93600 -0.30900 4.50200
C -1.77300 0.96400 4.03200
C -1.15500 1.16800 2.66000
C -3.26300 0.68500 3.86300
C 0.34500 0.11000 5.29900
C 0.12400 0.39700 6.78700
H 1.16800 0.03300 7.73300
N -0.18500 1.96100 -0.15200
C -0.70300 2.80000 0.77700
C -0.62000 4.15600 0.19300
C -0.18700 4.01500 -1.22500
C -0.21400 2.58300 -1.38000
C -0.88700 5.40600 0.97400
C 0.18100 5.01300 -2.27700
O 0.30300 4.69000 -3.50800
C 0.31000 6.41400 -1.83700
N -0.26500 -0.41300 -2.02900
C -0.27900 0.56900 -2.93700
C -0.19600 0.02400 -4.33200
C 0.12400 -1.53300 -4.18000
C 0.08600 -1.63200 -2.63500
C -1.45100 0.20500 -5.19700
C 1.37300 -2.07000 -4.92300
C 2.62600 -1.49000 -4.30600
N 0.15000 -2.14400 0.30300
C 0.17300 -3.13600 -0.68800
C 0.17300 -4.43800 0.00400
C 0.13300 -4.11100 1.35800
C 0.08300 -2.69500 1.50200
C 0.14900 -5.71500 -0.62300
C 0.09600 -4.62900 2.71600
O 0.20800 -5.74700 3.22100
C -0.25500 -3.42800 3.70100
C 0.71700 -3.48200 4.84800
O 1.93100 -3.25500 4.66900
O 0.03800 -3.55600 6.00300
C 0.94300 -3.58300 7.18300
H -1.85900 3.22000 2.49700
H -0.21800 2.45300 -3.47400
H 0.27600 -3.74700 -2.60500
H -1.55400 -0.94900 5.13200
H -1.58500 1.83100 4.66500
H -3.48400 -0.37700 3.96900
H -3.51100 1.02700 2.85800
H -3.85200 1.30100 4.54300
H 0.66900 1.09600 4.96600
H 1.13000 -0.63900 5.18900
H -0.84400 0.02600 7.12500
H 0.06200 1.47700 6.92100
H -1.34400 5.18600 1.93800
H -1.65100 5.96300 0.43200
H 0.00700 6.02000 1.08400
H -0.63500 6.74400 -1.40500
H 0.66500 6.97000 -2.70400
H 1.04800 6.46600 -1.03600
H 0.60800 0.50100 -4.89100
H -0.69200 -2.15600 -4.54700
H -1.26700 0.74000 -6.12900
H -2.20400 0.71400 -4.59600
H -1.96700 -0.72000 -5.45300
H 1.35600 -1.75900 -5.96700
H 1.45200 -3.15700 -4.90200
H 2.71400 -0.52200 -4.79800
H 3.48700 -2.12100 -4.52900
H 2.49500 -1.30300 -3.24000
H 0.86700 -6.33300 -0.08400
H 0.40400 -5.64200 -1.68000
H -0.89100 -5.99900 -0.46300
H -1.28300 -3.58100 4.02800
H 0.69800 -4.47800 7.75500
H 0.83300 -2.61900 7.68000
H 2.00000 -3.75400 6.97600
Mg 7.87676 0.70470 0.60566
C 7.11694 3.36246 2.89434
C 9.20338 -0.99250 3.25031
C 8.96150 -1.45389 -1.45134
C 7.55102 3.02220 -1.97674
N 8.07522 1.22260 2.74684
C 7.69459 2.23401 3.51269
C 7.87387 1.99085 5.03528
C 9.03311 0.88165 4.96680
C 8.73766 0.30437 3.58400
C 10.43245 1.47397 4.94808
C 6.57449 1.42300 5.70697
C 6.57589 1.45258 7.23696
H 5.31709 1.71466 7.92921
N 8.47827 -1.16317 0.90201
C 8.96772 -1.68885 2.04454
C 9.28319 -3.09280 1.73865
C 9.09428 -3.30860 0.27836
C 8.85214 -1.94868 -0.15992
C 9.63925 -4.09602 2.79704
C 9.13855 -4.53414 -0.58320
O 9.18120 -4.45712 -1.86190
C 9.22477 -5.82444 0.11623
N 8.41715 0.81399 -1.39893
C 8.80567 -0.28384 -2.07104
C 8.87766 -0.01751 -3.55572
C 8.22065 1.42534 -3.76573
C 7.95170 1.79797 -2.29121
C 10.27851 -0.03241 -4.16710
C 7.04734 1.52368 -4.77881
C 5.84571 0.77322 -4.25127
N 7.24083 2.76236 0.43342
C 7.20592 3.54909 -0.73873
C 6.81292 4.91472 -0.33494
C 6.66767 4.83267 1.05814
C 6.96983 3.51436 1.49433
C 6.68368 6.03446 -1.20419
C 6.33776 5.56419 2.26011
O 5.91725 6.69509 2.50091
C 6.73672 4.67705 3.51716
C 5.58054 4.68816 4.47926
O 4.49528 4.16593 4.16926
O 6.01052 5.11698 5.67993
C 4.90190 5.13495 6.67112
H 9.84611 -1.51191 3.96165
H 9.22562 -2.18750 -2.21655
H 7.33237 3.77757 -2.73456
H 8.21636 2.85250 5.59567
H 8.89943 0.12275 5.73333
H 10.41321 2.55043 4.86443
H 10.92558 1.03655 4.08987
H 10.99586 1.13773 5.82321
H 6.52951 0.33909 5.54005
H 5.70284 1.92667 5.33661
H 7.37400 2.09023 7.63617
H 6.82293 0.45313 7.60314
H 9.86071 -3.60898 3.75472
H 10.58916 -4.55245 2.49837
H 8.88770 -4.88128 2.90295
H 10.11632 -5.83897 0.73863
H 9.15564 -6.58495 -0.66398
H 8.36731 -5.91376 0.79255
H 8.30176 -0.74968 -4.10833
H 8.95133 2.15436 -4.14583
H 10.38578 -0.75863 -4.99485
H 10.99165 -0.24340 -3.38131
H 10.62786 0.92709 -4.54461
H 7.32125 1.04658 -5.72300
H 6.75711 2.54407 -5.00588
H 6.05538 -0.26150 -4.53846
H 4.93234 1.13530 -4.71892
H 5.80813 0.81026 -3.15634
H 5.77611 6.54853 -0.91687
H 6.65394 5.72665 -2.24733
H 7.60187 6.57629 -0.96211
H 7.63645 5.11275 3.95332
H 4.85235 6.15021 7.07667
H 5.12469 4.31834 7.38335
H 3.89289 5.00721 6.29690

