%nproc=24
%mem=175gb
#p cam-b3lyp/Def2SVP td=(nstates=5)

TDDFT excited states in gaussian

0 1
Mg 13.14564 1.18923 0.99342
C 12.52864 4.26219 2.74136
C 12.33268 2.83505 -1.88146
C 13.24238 -1.60109 -0.51396
C 12.79281 -0.45601 4.04538
N 12.52790 3.27784 0.60826
C 12.38766 4.37146 1.34221
C 12.15815 5.67030 0.52374
C 11.55386 5.01054 -0.80984
C 12.20217 3.63089 -0.71540
C 10.04526 4.83357 -0.76339
C 13.49584 6.43616 0.23038
C 13.31839 7.86309 -0.29319
H 14.28506 8.87912 0.11390
N 13.31321 0.77982 -0.94123
C 12.95517 1.57084 -1.97436
C 13.26228 0.80531 -3.19247
C 13.67739 -0.56660 -2.79212
C 13.40107 -0.52123 -1.37027
C 13.22567 1.41141 -4.56532
C 14.21971 -1.73141 -3.56369
O 14.28743 -2.90484 -3.05252
C 14.58207 -1.47751 -4.96573
N 12.82537 -0.76581 1.62397
C 12.98291 -1.79945 0.77857
C 12.97036 -3.11592 1.51826
C 13.01399 -2.73657 3.07125
C 12.95141 -1.19756 2.95767
C 11.76686 -4.01891 1.24883
C 14.15150 -3.36955 3.91865
C 15.48871 -2.81346 3.48504
N 12.92017 1.77691 3.06027
C 12.76325 0.92649 4.17662
C 12.53153 1.79005 5.35262
C 12.54691 3.09238 4.83090
C 12.75218 3.04292 3.42559
C 12.29477 1.33941 6.68190
C 12.42558 4.49721 5.14784
O 12.33025 5.14808 6.18756
C 12.28215 5.31102 3.79008
C 13.22678 6.48017 3.84730
O 14.45677 6.29828 3.87304
O 12.53494 7.61603 3.64343
C 13.43041 8.80288 3.68003
H 11.87893 3.19176 -2.80653
H 13.37752 -2.58595 -0.96703
H 12.77118 -0.88783 5.04824
H 11.44165 6.35871 0.95558
H 11.89668 5.53286 -1.69923
H 9.64131 5.07277 0.20911
H 9.86349 3.79413 -1.00335
H 9.57288 5.41408 -1.56101
H 13.98815 5.97767 -0.63689
H 14.12763 6.44526 1.09720
H 12.29404 8.22918 -0.15305
H 13.45386 7.85425 -1.37744
H 12.72645 2.38822 -4.56060
H 12.57561 0.77711 -5.17766
H 14.21240 1.45985 -5.03083
H 13.70949 -1.11575 -5.50442
H 15.03292 -2.40516 -5.32363
H 15.32564 -0.67323 -4.99477
H 13.84671 -3.70429 1.27548
H 12.09820 -3.05064 3.59329
H 12.04854 -5.02247 0.87789
H 11.11770 -3.52038 0.54131
H 11.10573 -4.17341 2.09985
H 14.19437 -4.44830 3.74949
H 14.03203 -3.21543 4.98587
H 15.74247 -3.42952 2.61719
H 16.22555 -2.92576 4.27781
H 15.39049 -1.77855 3.13724
H 12.88446 1.96986 7.33405
H 12.55698 0.28993 6.79855
H 11.21632 1.50357 6.75432
H 11.24210 5.62873 3.70687
H 13.02597 9.48512 4.43412
H 13.47766 9.17369 2.63887
H 14.44014 8.65781 4.04590

