%nproc=24
%mem=175gb
#p cam-b3lyp/Def2SVP td=(nstates=5)

TDDFT excited states in gaussian

0 1
Mg 7.88944 0.71575 0.60484
C 7.58963 -0.93605 3.77671
C 6.64034 3.51002 2.11030
C 7.71702 2.06286 -2.26274
C 8.01639 -2.43945 -0.86972
N 7.23711 1.11185 2.68085
C 7.22670 0.42642 3.81418
C 6.88065 1.26807 5.07172
C 6.06389 2.44937 4.35317
C 6.70621 2.38382 2.96904
C 4.58079 2.15255 4.20601
C 8.16082 1.81340 5.79683
C 7.91471 2.37981 7.19696
H 8.94355 2.18926 8.21561
N 7.74022 2.62671 0.09052
C 7.22814 3.63135 0.83198
C 7.32849 4.83876 -0.00243
C 7.78986 4.43485 -1.35842
C 7.74601 2.99180 -1.23280
C 7.07736 6.21943 0.53061
C 8.19042 5.21773 -2.57203
O 8.32858 4.66000 -3.71775
C 8.32513 6.67153 -2.39935
N 7.65663 -0.06484 -1.30797
C 7.66677 0.73651 -2.38762
C 7.76110 -0.06718 -3.66260
C 8.05717 -1.56987 -3.20231
C 7.99134 -1.38298 -1.67060
C 6.52168 -0.04395 -4.55685
C 9.31017 -2.25807 -3.80980
C 10.56541 -1.58616 -3.30157
N 8.00440 -1.32492 1.30520
C 8.02105 -2.49721 0.51809
C 7.98924 -3.64566 1.44680
C 7.93261 -3.05712 2.71916
C 7.90896 -1.64196 2.59161
C 7.96500 -5.01851 1.07157
C 7.87672 -3.31135 4.14076
O 7.95568 -4.31540 4.84743
C 7.52451 -1.95118 4.88391
C 8.47680 -1.79198 6.03730
O 9.69321 -1.63068 5.83499
O 7.77169 -1.63899 7.17299
C 8.67230 -1.46635 8.34385
H 6.04716 4.36887 2.42557
H 7.76853 2.47665 -3.27249
H 8.15219 -3.45515 -1.24732
H 6.24921 0.76587 5.79481
H 6.26416 3.40959 4.82137
H 4.34055 1.14267 4.50363
H 4.35325 2.30261 3.15875
H 3.99176 2.89517 4.75181
H 8.50314 2.72160 5.28425
H 8.92373 1.06062 5.84052
H 6.92961 2.09807 7.58828
H 7.87413 3.46961 7.12823
H 6.59441 6.18884 1.51510
H 6.33155 6.68396 -0.12348
H 7.97688 6.83869 0.53659
H 7.38071 7.08287 -2.05105
H 8.70405 7.04517 -3.35261
H 9.06175 6.86346 -1.61121
H 8.58160 0.27978 -4.27864
H 7.23429 -2.24817 -3.47178
H 6.73084 0.31130 -5.58356
H 5.77189 0.57707 -4.08495
H 6.00447 -0.99696 -4.65413
H 9.31537 -2.14403 -4.89660
H 9.36514 -3.32051 -3.59721
H 10.67075 -0.72424 -3.96721
H 11.41898 -2.25586 -3.38489
H 10.42212 -1.20196 -2.28495
H 8.65759 -5.53216 1.72501
H 8.23286 -5.14947 0.02521
H 6.91374 -5.25331 1.25866
H 6.48757 -2.01797 5.21537
H 8.40057 -2.23659 9.07225
H 8.55507 -0.41217 8.65805
H 9.72631 -1.67347 8.20027

