%nproc=24
%mem=175gb
#p cam-b3lyp/Def2SVP td=(nstates=5)

TDDFT excited states in gaussian

0 1
Mg 15.77027 1.42231 1.18829
C 18.47642 -0.91037 0.85006
C 18.09433 3.91350 1.02294
C 13.47270 3.47975 1.93362
C 13.85264 -1.19859 2.45292
N 17.97034 1.38090 0.96419
C 18.88325 0.43849 0.78300
C 20.29862 0.97250 0.43497
C 20.16884 2.43678 1.08143
C 18.65438 2.61147 0.98890
C 20.56651 2.48487 2.54734
C 20.54520 1.04771 -1.11279
C 22.00375 1.26470 -1.52182
H 22.48963 0.61675 -2.73695
N 15.68726 3.39219 0.96185
C 16.72856 4.24778 0.89154
C 16.13915 5.58769 0.74524
C 14.66371 5.47061 0.90046
C 14.55009 4.08247 1.30076
C 16.95342 6.80217 0.40552
C 13.54186 6.44982 0.73073
O 12.35715 6.19555 1.14863
C 13.89147 7.75227 0.14517
N 13.99943 1.23076 2.26057
C 13.15480 2.26873 2.39151
C 11.82871 1.82440 2.96112
C 11.87447 0.22581 2.95966
C 13.31711 0.01441 2.45024
C 11.50949 2.32285 4.37039
C 10.71766 -0.51070 2.23027
C 10.79932 -0.25422 0.74268
N 16.01298 -0.71214 1.41904
C 15.09609 -1.61733 1.99700
C 15.75391 -2.93959 2.03341
C 17.02643 -2.70531 1.49092
C 17.16002 -1.32981 1.15975
C 15.19155 -4.13414 2.56532
C 18.29088 -3.30674 1.13294
O 18.72897 -4.45608 1.10427
C 19.33129 -2.14684 0.81898
C 20.02825 -2.48453 -0.47049
O 19.39607 -2.51706 -1.54095
O 21.35745 -2.49927 -0.26219
C 22.09272 -2.81872 -1.51484
H 18.75729 4.75872 1.20995
H 12.60943 4.12504 2.11210
H 13.28592 -2.08627 2.74194
H 21.11485 0.43211 0.89921
H 20.67644 3.18258 0.47522
H 20.75874 1.49951 2.94517
H 19.73398 2.94530 3.06303
H 21.41664 3.15908 2.68538
H 20.10136 1.97325 -1.50152
H 20.15833 0.17558 -1.60305
H 22.69585 1.08868 -0.68938
H 22.14207 2.32060 -1.76668
H 18.02776 6.61005 0.51635
H 16.73276 7.55829 1.16674
H 16.71132 7.20993 -0.57824
H 14.64611 8.23460 0.76188
H 12.94424 8.28079 0.02147
H 14.34815 7.58329 -0.83641
H 11.00892 2.15307 2.33420
H 11.83827 -0.18378 3.97984
H 10.55923 2.88642 4.42921
H 12.33517 2.93293 4.71185
H 11.46273 1.54877 5.13447
H 9.75210 -0.11948 2.56012
H 10.70844 -1.58122 2.40605
H 10.30206 0.71401 0.63154
H 10.27615 -1.03231 0.19051
H 11.83990 -0.12917 0.42141
H 15.42417 -4.92609 1.86589
H 14.11816 -4.03644 2.71386
H 15.73283 -4.19939 3.51297
H 20.02597 -2.09389 1.65814
H 22.72745 -3.68418 -1.30089
H 22.60134 -1.88171 -1.80994
H 21.51488 -3.18305 -2.35616

