%nproc=24
%mem=175gb
#p cam-b3lyp/Def2SVP td=(nstates=5)

TDDFT excited states in gaussian

0 1
Mg 0.00000 0.00000 0.00000
C -0.21700 -2.21800 2.80100
C -1.25500 2.44200 2.02600
C -0.24500 1.85000 -2.56400
C 0.14600 -2.82400 -2.03700
N -0.61700 -0.00900 2.12600
C -0.59400 -0.90800 3.10500
C -0.93600 -0.30900 4.50200
C -1.77300 0.96400 4.03200
C -1.15500 1.16800 2.66000
C -3.26300 0.68500 3.86300
C 0.34500 0.11000 5.29900
C 0.12400 0.39700 6.78700
H 1.16800 0.03300 7.73300
N -0.18500 1.96100 -0.15200
C -0.70300 2.80000 0.77700
C -0.62000 4.15600 0.19300
C -0.18700 4.01500 -1.22500
C -0.21400 2.58300 -1.38000
C -0.88700 5.40600 0.97400
C 0.18100 5.01300 -2.27700
O 0.30300 4.69000 -3.50800
C 0.31000 6.41400 -1.83700
N -0.26500 -0.41300 -2.02900
C -0.27900 0.56900 -2.93700
C -0.19600 0.02400 -4.33200
C 0.12400 -1.53300 -4.18000
C 0.08600 -1.63200 -2.63500
C -1.45100 0.20500 -5.19700
C 1.37300 -2.07000 -4.92300
C 2.62600 -1.49000 -4.30600
N 0.15000 -2.14400 0.30300
C 0.17300 -3.13600 -0.68800
C 0.17300 -4.43800 0.00400
C 0.13300 -4.11100 1.35800
C 0.08300 -2.69500 1.50200
C 0.14900 -5.71500 -0.62300
C 0.09600 -4.62900 2.71600
O 0.20800 -5.74700 3.22100
C -0.25500 -3.42800 3.70100
C 0.71700 -3.48200 4.84800
O 1.93100 -3.25500 4.66900
O 0.03800 -3.55600 6.00300
C 0.94300 -3.58300 7.18300
H -1.85900 3.22000 2.49700
H -0.21800 2.45300 -3.47400
H 0.27600 -3.74700 -2.60500
H -1.55400 -0.94900 5.13200
H -1.58500 1.83100 4.66500
H -3.48400 -0.37700 3.96900
H -3.51100 1.02700 2.85800
H -3.85200 1.30100 4.54300
H 0.66900 1.09600 4.96600
H 1.13000 -0.63900 5.18900
H -0.84400 0.02600 7.12500
H 0.06200 1.47700 6.92100
H -1.34400 5.18600 1.93800
H -1.65100 5.96300 0.43200
H 0.00700 6.02000 1.08400
H -0.63500 6.74400 -1.40500
H 0.66500 6.97000 -2.70400
H 1.04800 6.46600 -1.03600
H 0.60800 0.50100 -4.89100
H -0.69200 -2.15600 -4.54700
H -1.26700 0.74000 -6.12900
H -2.20400 0.71400 -4.59600
H -1.96700 -0.72000 -5.45300
H 1.35600 -1.75900 -5.96700
H 1.45200 -3.15700 -4.90200
H 2.71400 -0.52200 -4.79800
H 3.48700 -2.12100 -4.52900
H 2.49500 -1.30300 -3.24000
H 0.86700 -6.33300 -0.08400
H 0.40400 -5.64200 -1.68000
H -0.89100 -5.99900 -0.46300
H -1.28300 -3.58100 4.02800
H 0.69800 -4.47800 7.75500
H 0.83300 -2.61900 7.68000
H 2.00000 -3.75400 6.97600
Mg 15.77390 1.41290 1.20112
C 15.98242 -0.90085 -1.53423
C 14.97856 -1.24132 3.19038
C 15.14251 3.47410 3.52926
C 15.45482 3.95833 -1.15784
N 15.54198 -0.74370 0.76802
C 15.70627 -1.51604 -0.29539
C 15.64616 -3.03874 0.00012
C 14.77422 -2.98792 1.34772
C 15.14293 -1.58461 1.82464
C 13.27595 -3.02888 1.09700
C 17.06634 -3.65414 0.25774
C 17.11611 -5.18357 0.24672
H 18.30504 -5.83741 -0.29310
N 15.63394 1.13335 3.16092
C 15.32351 -0.01458 3.79902
C 15.33109 0.30819 5.23427
C 15.50942 1.77810 5.38355
C 15.41258 2.19727 3.99971
C 15.25794 -0.74160 6.30478
C 15.71814 2.66184 6.57588
O 15.61033 3.93655 6.49633
C 15.96027 1.98568 7.85871
N 15.14731 3.39525 1.19771
C 14.99896 4.07538 2.34808
C 14.81091 5.55113 2.08890
C 15.10671 5.75475 0.53050
C 15.33755 4.28318 0.12235
C 13.42962 6.11438 2.42231
C 16.18591 6.80524 0.15038
C 17.54800 6.33416 0.60667
N 15.90797 1.56584 -0.94985
C 15.71490 2.72261 -1.73642
C 15.79529 2.30542 -3.15131
C 16.00832 0.92004 -3.08944
C 16.03708 0.50008 -1.73212
C 15.62812 3.15614 -4.28022
C 16.20478 -0.28424 -3.86390
O 16.36019 -0.53297 -5.05878
C 16.07052 -1.53632 -2.89402
C 17.22818 -2.45832 -3.16283
O 18.39245 -2.10103 -2.91096
O 16.75626 -3.68129 -3.46616
C 17.86720 -4.63412 -3.73024
H 14.50136 -1.96377 3.85313
H 15.02703 4.24426 4.29541
H 15.46333 4.70801 -1.95193
H 15.13456 -3.62754 -0.75177
H 15.10932 -3.73417 2.06338
H 13.04169 -2.96604 0.04471
H 12.86562 -2.17951 1.62733
H 12.83954 -3.91592 1.56503
H 17.35526 -3.46425 1.29947
H 17.78263 -3.26426 -0.43907
H 16.20754 -5.62246 -0.18318
H 17.12181 -5.53803 1.28033
H 14.96597 -1.71579 5.89356
H 14.42925 -0.46659 6.96623
H 16.17465 -0.80609 6.89483
H 15.12068 1.33354 8.08733
H 16.17437 2.78276 8.57334
H 16.84005 1.34101 7.75381
H 15.51962 6.13757 2.66067
H 14.21294 6.09506 -0.01281
H 13.46251 6.95226 3.14409
H 12.81522 5.30901 2.80234
H 12.85310 6.46056 1.56617
H 15.99460 7.74881 0.66733
H 16.22260 7.02177 -0.91205
H 17.57343 6.63453 1.65844
H 18.33401 6.82550 0.03675
H 17.61743 5.24064 0.57438
H 16.40184 2.88989 -4.98801
H 15.68891 4.20561 -3.99968
H 14.61910 2.87206 -4.59080
H 15.11145 -2.01159 -3.10347
H 17.69513 -5.05786 -4.72449
H 17.86716 -5.33718 -2.87615
H 18.86337 -4.22313 -3.84501

