%nproc=24
%mem=175gb
#p cam-b3lyp/Def2SVP td=(nstates=5)

TDDFT excited states in gaussian

0 1
Mg 15.77420 1.41236 1.19777
C 15.91251 0.49576 -2.26919
C 15.13402 -1.86671 1.88512
C 15.20098 2.25694 4.20202
C 15.28715 4.70494 0.16461
N 15.57414 -0.36149 -0.10824
C 15.70799 -0.59950 -1.40431
C 15.69771 -2.10398 -1.78639
C 14.88731 -2.66817 -0.51998
C 15.24392 -1.58813 0.49933
C 13.38055 -2.65984 -0.71733
C 17.14244 -2.71162 -1.86097
C 17.22804 -4.08704 -2.52630
H 18.40629 -4.39904 -3.33058
N 15.73065 0.31874 2.85326
C 15.47712 -1.00334 2.94871
C 15.54259 -1.32302 4.38317
C 15.69252 -0.05096 5.14087
C 15.52259 0.91365 4.07282
C 15.54346 -2.73096 4.90385
C 15.93441 0.24809 6.58941
O 15.79277 1.42952 7.06583
C 16.25095 -0.89975 7.45182
N 15.10110 3.17955 2.06166
C 14.98933 3.29782 3.39637
C 14.75456 4.73421 3.79895
C 14.97390 5.59454 2.46880
C 15.22080 4.44810 1.46376
C 13.37693 5.04443 4.38400
C 16.00928 6.75016 2.54083
C 17.40163 6.18588 2.70926
N 15.80615 2.47280 -0.68439
C 15.54986 3.84548 -0.89450
C 15.57541 4.07478 -2.35367
C 15.82396 2.80518 -2.89666
C 15.92471 1.84836 -1.85078
C 15.33661 5.31785 -3.00473
C 16.01344 2.05500 -4.11732
O 16.11995 2.34585 -5.30804
C 15.95349 0.50463 -3.77214
C 17.11927 -0.16651 -4.44522
O 18.28500 0.09682 -4.10119
O 16.66322 -1.16181 -5.22738
C 17.78330 -1.86474 -5.90792
H 14.70493 -2.82162 2.18993
H 15.10234 2.62166 5.22707
H 15.24151 5.72121 -0.23261
H 15.16645 -2.33664 -2.70149
H 15.27244 -3.63382 -0.20286
H 13.09701 -2.16419 -1.63389
H 12.97478 -2.13512 0.13770
H 12.98723 -3.67883 -0.66009
H 17.47406 -2.97214 -0.84761
H 17.81665 -2.03291 -2.34617
H 16.31148 -4.33774 -3.07403
H 17.28941 -4.84764 -1.74417
H 15.25627 -3.44807 4.12495
H 14.73955 -2.79835 5.64484
H 16.48745 -3.00308 5.38082
H 15.43844 -1.62099 7.40574
H 16.47845 -0.47521 8.43156
H 17.14011 -1.40153 7.05404
H 15.47449 5.04958 4.54416
H 14.04838 6.09694 2.15125
H 13.42281 5.49536 5.39328
H 12.79989 4.12943 4.40220
H 12.75380 5.69849 3.77645
H 15.81939 7.37470 3.41721
H 15.99221 7.40014 1.67237
H 17.46795 6.01012 3.78713
H 18.14885 6.90506 2.37991
H 17.49552 5.21428 2.21045
H 16.08330 5.41064 -3.78213
H 15.38516 6.14918 -2.30452
H 14.32151 5.15207 -3.37534
H 14.99743 0.12502 -4.13466
H 17.57611 -1.83099 -6.98199
H 17.83903 -2.86409 -5.43682
H 18.76312 -1.40352 -5.86694

