%nproc=24
%mem=175gb
#p cam-b3lyp/Def2SVP td=(nstates=5)

TDDFT excited states in gaussian

0 1
Mg 0.00000 0.00000 0.00000
C -0.21700 -2.21800 2.80100
C -1.25500 2.44200 2.02600
C -0.24500 1.85000 -2.56400
C 0.14600 -2.82400 -2.03700
N -0.61700 -0.00900 2.12600
C -0.59400 -0.90800 3.10500
C -0.93600 -0.30900 4.50200
C -1.77300 0.96400 4.03200
C -1.15500 1.16800 2.66000
C -3.26300 0.68500 3.86300
C 0.34500 0.11000 5.29900
C 0.12400 0.39700 6.78700
H 1.16800 0.03300 7.73300
N -0.18500 1.96100 -0.15200
C -0.70300 2.80000 0.77700
C -0.62000 4.15600 0.19300
C -0.18700 4.01500 -1.22500
C -0.21400 2.58300 -1.38000
C -0.88700 5.40600 0.97400
C 0.18100 5.01300 -2.27700
O 0.30300 4.69000 -3.50800
C 0.31000 6.41400 -1.83700
N -0.26500 -0.41300 -2.02900
C -0.27900 0.56900 -2.93700
C -0.19600 0.02400 -4.33200
C 0.12400 -1.53300 -4.18000
C 0.08600 -1.63200 -2.63500
C -1.45100 0.20500 -5.19700
C 1.37300 -2.07000 -4.92300
C 2.62600 -1.49000 -4.30600
N 0.15000 -2.14400 0.30300
C 0.17300 -3.13600 -0.68800
C 0.17300 -4.43800 0.00400
C 0.13300 -4.11100 1.35800
C 0.08300 -2.69500 1.50200
C 0.14900 -5.71500 -0.62300
C 0.09600 -4.62900 2.71600
O 0.20800 -5.74700 3.22100
C -0.25500 -3.42800 3.70100
C 0.71700 -3.48200 4.84800
O 1.93100 -3.25500 4.66900
O 0.03800 -3.55600 6.00300
C 0.94300 -3.58300 7.18300
H -1.85900 3.22000 2.49700
H -0.21800 2.45300 -3.47400
H 0.27600 -3.74700 -2.60500
H -1.55400 -0.94900 5.13200
H -1.58500 1.83100 4.66500
H -3.48400 -0.37700 3.96900
H -3.51100 1.02700 2.85800
H -3.85200 1.30100 4.54300
H 0.66900 1.09600 4.96600
H 1.13000 -0.63900 5.18900
H -0.84400 0.02600 7.12500
H 0.06200 1.47700 6.92100
H -1.34400 5.18600 1.93800
H -1.65100 5.96300 0.43200
H 0.00700 6.02000 1.08400
H -0.63500 6.74400 -1.40500
H 0.66500 6.97000 -2.70400
H 1.04800 6.46600 -1.03600
H 0.60800 0.50100 -4.89100
H -0.69200 -2.15600 -4.54700
H -1.26700 0.74000 -6.12900
H -2.20400 0.71400 -4.59600
H -1.96700 -0.72000 -5.45300
H 1.35600 -1.75900 -5.96700
H 1.45200 -3.15700 -4.90200
H 2.71400 -0.52200 -4.79800
H 3.48700 -2.12100 -4.52900
H 2.49500 -1.30300 -3.24000
H 0.86700 -6.33300 -0.08400
H 0.40400 -5.64200 -1.68000
H -0.89100 -5.99900 -0.46300
H -1.28300 -3.58100 4.02800
H 0.69800 -4.47800 7.75500
H 0.83300 -2.61900 7.68000
H 2.00000 -3.75400 6.97600
Mg 7.88946 0.71719 0.60287
C 7.46702 0.13694 4.11910
C 6.68301 3.86396 1.12909
C 7.82412 1.11127 -2.54481
C 7.96368 -2.74160 0.18223
N 7.19850 1.75017 2.43257
C 7.14155 1.45048 3.72147
C 6.78890 2.64719 4.64510
C 6.02310 3.56266 3.57070
C 6.69659 3.05869 2.29590
C 4.53626 3.26323 3.47581
C 8.06594 3.36599 5.20590
C 7.80201 4.34341 6.35340
H 8.80021 4.45866 7.41303
N 7.80622 2.37680 -0.48218
C 7.30469 3.57149 -0.10473
C 7.45890 4.45832 -1.26830
C 7.94142 3.64493 -2.41734
C 7.85419 2.31317 -1.85264
C 7.23369 5.94076 -1.19706
C 8.39292 4.00489 -3.80037
O 8.54306 3.11671 -4.71220
C 8.56404 5.43768 -4.08203
N 7.68119 -0.61369 -0.98071
C 7.73982 -0.18716 -2.25450
C 7.84240 -1.34839 -3.21441
C 8.08511 -2.63951 -2.30245
C 7.98755 -1.98544 -0.90672
C 6.62608 -1.58004 -4.11068
C 9.33268 -3.50602 -2.62710
C 10.59358 -2.73371 -2.31237
N 7.93033 -1.00733 1.90380
C 7.93319 -2.36606 1.51918
C 7.84685 -3.16890 2.75628
C 7.77598 -2.21371 3.78150
C 7.79501 -0.90777 3.22146
C 7.79328 -4.58971 2.82388
C 7.67868 -2.01326 5.20945
O 7.71242 -2.74986 6.19435
C 7.34680 -0.48319 5.48352
C 8.27503 0.00775 6.56050
O 9.50001 0.07506 6.35678
O 7.54724 0.51896 7.57014
C 8.42378 1.02907 8.65792
H 6.10665 4.78942 1.14408
H 7.91156 1.19033 -3.63089
H 8.08010 -3.82673 0.14209
H 6.12638 2.40624 5.46777
H 6.23878 4.61675 3.72476
H 4.26075 2.40029 4.06366
H 4.33838 3.08531 2.42689
H 3.95523 4.14964 3.74599
H 8.44581 4.06365 4.44847
H 8.80621 2.64947 5.50459
H 6.80025 4.21585 6.78135
H 7.79360 5.35868 5.94945
H 6.72643 6.22634 -0.26725
H 6.51718 6.19362 -1.98607
H 8.14977 6.51403 -1.35461
H 7.62335 5.95475 -3.90824
H 8.97618 5.48984 -5.09163
H 9.28648 5.85053 -3.36912
H 8.68692 -1.22540 -3.88131
H 7.25033 -3.35209 -2.37461
H 6.86983 -1.56490 -5.18977
H 5.88277 -0.82906 -3.87817
H 6.08492 -2.50615 -3.92449
H 9.36732 -3.73489 -3.69508
H 9.35276 -4.45094 -2.09444
H 10.73904 -2.12299 -3.20845
H 11.42985 -3.41240 -2.15725
H 10.43658 -2.05042 -1.46969
H 8.45524 -4.88842 3.62580
H 8.08257 -5.04391 1.87848
H 6.73166 -4.73474 3.04111
H 6.30069 -0.42402 5.78639
H 8.11310 0.52814 9.58000
H 8.32853 2.13075 8.62649
H 9.47475 0.76753 8.61894

