%nproc=24
%mem=175gb
#p cam-b3lyp/Def2SVP td=(nstates=5)

TDDFT excited states in gaussian

0 1
Mg 0.00000 0.00000 0.00000
C -0.21700 -2.21800 2.80100
C -1.25500 2.44200 2.02600
C -0.24500 1.85000 -2.56400
C 0.14600 -2.82400 -2.03700
N -0.61700 -0.00900 2.12600
C -0.59400 -0.90800 3.10500
C -0.93600 -0.30900 4.50200
C -1.77300 0.96400 4.03200
C -1.15500 1.16800 2.66000
C -3.26300 0.68500 3.86300
C 0.34500 0.11000 5.29900
C 0.12400 0.39700 6.78700
H 1.16800 0.03300 7.73300
N -0.18500 1.96100 -0.15200
C -0.70300 2.80000 0.77700
C -0.62000 4.15600 0.19300
C -0.18700 4.01500 -1.22500
C -0.21400 2.58300 -1.38000
C -0.88700 5.40600 0.97400
C 0.18100 5.01300 -2.27700
O 0.30300 4.69000 -3.50800
C 0.31000 6.41400 -1.83700
N -0.26500 -0.41300 -2.02900
C -0.27900 0.56900 -2.93700
C -0.19600 0.02400 -4.33200
C 0.12400 -1.53300 -4.18000
C 0.08600 -1.63200 -2.63500
C -1.45100 0.20500 -5.19700
C 1.37300 -2.07000 -4.92300
C 2.62600 -1.49000 -4.30600
N 0.15000 -2.14400 0.30300
C 0.17300 -3.13600 -0.68800
C 0.17300 -4.43800 0.00400
C 0.13300 -4.11100 1.35800
C 0.08300 -2.69500 1.50200
C 0.14900 -5.71500 -0.62300
C 0.09600 -4.62900 2.71600
O 0.20800 -5.74700 3.22100
C -0.25500 -3.42800 3.70100
C 0.71700 -3.48200 4.84800
O 1.93100 -3.25500 4.66900
O 0.03800 -3.55600 6.00300
C 0.94300 -3.58300 7.18300
H -1.85900 3.22000 2.49700
H -0.21800 2.45300 -3.47400
H 0.27600 -3.74700 -2.60500
H -1.55400 -0.94900 5.13200
H -1.58500 1.83100 4.66500
H -3.48400 -0.37700 3.96900
H -3.51100 1.02700 2.85800
H -3.85200 1.30100 4.54300
H 0.66900 1.09600 4.96600
H 1.13000 -0.63900 5.18900
H -0.84400 0.02600 7.12500
H 0.06200 1.47700 6.92100
H -1.34400 5.18600 1.93800
H -1.65100 5.96300 0.43200
H 0.00700 6.02000 1.08400
H -0.63500 6.74400 -1.40500
H 0.66500 6.97000 -2.70400
H 1.04800 6.46600 -1.03600
H 0.60800 0.50100 -4.89100
H -0.69200 -2.15600 -4.54700
H -1.26700 0.74000 -6.12900
H -2.20400 0.71400 -4.59600
H -1.96700 -0.72000 -5.45300
H 1.35600 -1.75900 -5.96700
H 1.45200 -3.15700 -4.90200
H 2.71400 -0.52200 -4.79800
H 3.48700 -2.12100 -4.52900
H 2.49500 -1.30300 -3.24000
H 0.86700 -6.33300 -0.08400
H 0.40400 -5.64200 -1.68000
H -0.89100 -5.99900 -0.46300
H -1.28300 -3.58100 4.02800
H 0.69800 -4.47800 7.75500
H 0.83300 -2.61900 7.68000
H 2.00000 -3.75400 6.97600
Mg 10.51833 0.94990 0.79186
C 9.97381 4.48887 1.03322
C 9.86356 1.22757 -2.54412
C 10.54737 -2.21843 0.62359
C 10.00335 0.77620 4.23429
N 9.99913 2.68743 -0.47450
C 9.88110 3.99283 -0.28389
C 9.73070 4.82217 -1.58741
C 9.14168 3.67023 -2.53870
C 9.72956 2.44837 -1.83576
C 7.62638 3.56607 -2.49025
C 11.10719 5.35703 -2.11772
C 11.00486 6.42695 -3.20701
H 11.99926 7.49615 -3.22805
N 10.72914 -0.25114 -0.77391
C 10.43623 0.03058 -2.06082
C 10.74947 -1.18929 -2.82106
C 11.09524 -2.26782 -1.85569
C 10.77685 -1.61240 -0.60304
C 10.78055 -1.22758 -4.32139
C 11.61307 -3.66321 -2.03157
O 11.61661 -4.50674 -1.06654
C 12.02905 -4.04177 -3.38993
N 10.09859 -0.53970 2.18013
C 10.23984 -1.83895 1.86405
C 10.15023 -2.71214 3.09284
C 10.16098 -1.70646 4.33625
C 10.16520 -0.36271 3.57485
C 8.91966 -3.61470 3.17925
C 11.24460 -1.94330 5.42361
C 12.61637 -1.65796 4.85596
N 10.25288 2.36993 2.39844
C 10.02649 2.08237 3.76231
C 9.79388 3.37103 4.44617
C 9.87895 4.32456 3.42048
C 10.12570 3.67420 2.18126
C 9.49753 3.53769 5.82839
C 9.80557 5.73248 3.10255
O 9.70469 6.76742 3.76017
C 9.73803 5.89089 1.52245
C 10.72761 6.94944 1.11904
O 11.94769 6.76679 1.27603
O 10.08966 7.90522 0.41914
C 11.03152 8.97211 -0.01269
H 9.45388 1.16527 -3.55267
H 10.65602 -3.30535 0.64017
H 9.93278 0.81520 5.32341
H 9.02996 5.64596 -1.52339
H 9.53319 3.75388 -3.54919
H 7.20248 4.20759 -1.73203
H 7.40966 2.52847 -2.27236
H 7.20330 3.76094 -3.47988
H 11.60704 4.56021 -2.68338
H 11.71151 5.72078 -1.30956
H 9.99253 6.84208 -3.28322
H 11.17356 5.95222 -4.17664
H 10.32194 -0.33093 -4.75624
H 10.12439 -2.04709 -4.63400
H 11.78245 -1.40629 -4.71751
H 11.18926 -3.92436 -4.07068
H 12.45237 -5.04382 -3.29733
H 12.80554 -3.34504 -3.72496
H 11.00883 -3.36849 3.16429
H 9.21725 -1.74531 4.89990
H 9.17132 -4.68691 3.28469
H 8.31386 -3.45119 2.29789
H 8.22655 -3.37478 3.98376
H 11.24841 -2.99150 5.73248
H 11.09837 -1.34493 6.31668
H 12.87155 -2.59174 4.34603
H 13.32293 -1.43807 5.65375
H 12.57159 -0.86905 4.09618
H 10.09200 4.37218 6.17585
H 9.71268 2.63289 6.39304
H 8.42499 3.74267 5.77457
H 8.71499 6.16719 1.26434
H 10.63212 9.92066 0.35937
H 11.12636 8.86100 -1.10923
H 12.02255 8.97338 0.42584

