%nproc=24
%mem=175gb
#p cam-b3lyp/Def2SVP td=(nstates=5)

TDDFT excited states in gaussian

0 1
Mg 7.88972 0.71302 0.59121
C 10.65529 -1.52523 1.06121
C 10.05422 3.27730 1.20277
C 5.39732 2.67616 0.62926
C 5.77712 -2.00225 1.14795
N 10.05142 0.74509 1.05840
C 11.01102 -0.16325 1.15010
C 12.44319 0.42376 1.26795
C 12.06428 1.86294 1.87134
C 10.64681 1.99447 1.31801
C 11.98789 1.87807 3.38899
C 13.15242 0.55381 -0.12564
C 14.65657 0.82729 -0.05869
H 15.51823 0.23189 -1.07629
N 7.80535 2.68549 0.38925
C 8.78396 3.57396 0.66168
C 8.21768 4.89927 0.36667
C 6.77199 4.73289 0.05517
C 6.59356 3.33033 0.37307
C 9.04996 6.14769 0.31981
C 5.72072 5.68244 -0.43409
O 4.47550 5.37974 -0.40858
C 6.18390 7.01222 -0.85675
N 5.88306 0.43517 1.05862
C 5.00019 1.44260 0.94219
C 3.58105 0.94109 1.06439
C 3.68616 -0.65458 1.04553
C 5.22257 -0.80651 1.00364
C 2.82359 1.38621 2.31520
C 2.84005 -1.40306 -0.02056
C 3.36704 -1.09874 -1.40442
N 8.13082 -1.41919 0.84346
C 7.11565 -2.36900 1.09116
C 7.78019 -3.67125 1.30323
C 9.14808 -3.38203 1.18607
C 9.32464 -1.99362 0.93982
C 7.12725 -4.89801 1.61118
C 10.48332 -3.93366 1.22527
O 10.95250 -5.06780 1.31087
C 11.52466 -2.73373 1.27183
C 12.59800 -3.01048 0.25503
O 12.32884 -3.02929 -0.95897
O 13.79753 -2.99136 0.86423
C 14.89522 -3.24986 -0.10534
H 10.59423 4.13606 1.60251
H 4.49709 3.28926 0.54448
H 5.18327 -2.91512 1.22972
H 13.09631 -0.10566 1.95127
H 12.70528 2.64199 1.46692
H 12.08548 0.88726 3.80720
H 11.01986 2.29707 3.63064
H 12.72744 2.57316 3.79674
H 12.81517 1.47699 -0.61426
H 12.96944 -0.31418 -0.72874
H 15.06412 0.64686 0.94346
H 14.82321 1.89390 -0.22775
H 10.04415 5.98486 0.75394
H 8.57634 6.87309 0.99014
H 9.10793 6.57790 -0.68230
H 6.69229 7.49803 -0.02731
H 5.30161 7.51537 -1.25711
H 6.92738 6.88731 -1.65189
H 2.98287 1.26386 0.22113
H 3.35252 -1.09616 1.99607
H 1.88074 1.91869 2.08811
H 3.47957 2.01024 2.90749
H 2.57291 0.58802 3.01179
H 1.80560 -1.05154 0.00186
H 2.81799 -2.47825 0.12250
H 2.89170 -0.14305 -1.64485
H 3.07002 -1.87501 -2.10671
H 4.45038 -0.93246 -1.38524
H 7.59452 -5.66074 1.00258
H 6.05751 -4.83743 1.42204
H 7.35165 -4.97587 2.67835
H 11.92382 -2.68553 2.28569
H 15.46553 -4.10187 0.27742
H 15.43384 -2.28928 -0.20989
H 14.61967 -3.60555 -1.09125

