%nproc=24
%mem=175gb
#p cam-b3lyp/Def2SVP td=(nstates=5)

TDDFT excited states in gaussian

0 1
Mg 0.00000 0.00000 0.00000
C -0.21700 -2.21800 2.80100
C -1.25500 2.44200 2.02600
C -0.24500 1.85000 -2.56400
C 0.14600 -2.82400 -2.03700
N -0.61700 -0.00900 2.12600
C -0.59400 -0.90800 3.10500
C -0.93600 -0.30900 4.50200
C -1.77300 0.96400 4.03200
C -1.15500 1.16800 2.66000
C -3.26300 0.68500 3.86300
C 0.34500 0.11000 5.29900
C 0.12400 0.39700 6.78700
H 1.16800 0.03300 7.73300
N -0.18500 1.96100 -0.15200
C -0.70300 2.80000 0.77700
C -0.62000 4.15600 0.19300
C -0.18700 4.01500 -1.22500
C -0.21400 2.58300 -1.38000
C -0.88700 5.40600 0.97400
C 0.18100 5.01300 -2.27700
O 0.30300 4.69000 -3.50800
C 0.31000 6.41400 -1.83700
N -0.26500 -0.41300 -2.02900
C -0.27900 0.56900 -2.93700
C -0.19600 0.02400 -4.33200
C 0.12400 -1.53300 -4.18000
C 0.08600 -1.63200 -2.63500
C -1.45100 0.20500 -5.19700
C 1.37300 -2.07000 -4.92300
C 2.62600 -1.49000 -4.30600
N 0.15000 -2.14400 0.30300
C 0.17300 -3.13600 -0.68800
C 0.17300 -4.43800 0.00400
C 0.13300 -4.11100 1.35800
C 0.08300 -2.69500 1.50200
C 0.14900 -5.71500 -0.62300
C 0.09600 -4.62900 2.71600
O 0.20800 -5.74700 3.22100
C -0.25500 -3.42800 3.70100
C 0.71700 -3.48200 4.84800
O 1.93100 -3.25500 4.66900
O 0.03800 -3.55600 6.00300
C 0.94300 -3.58300 7.18300
H -1.85900 3.22000 2.49700
H -0.21800 2.45300 -3.47400
H 0.27600 -3.74700 -2.60500
H -1.55400 -0.94900 5.13200
H -1.58500 1.83100 4.66500
H -3.48400 -0.37700 3.96900
H -3.51100 1.02700 2.85800
H -3.85200 1.30100 4.54300
H 0.66900 1.09600 4.96600
H 1.13000 -0.63900 5.18900
H -0.84400 0.02600 7.12500
H 0.06200 1.47700 6.92100
H -1.34400 5.18600 1.93800
H -1.65100 5.96300 0.43200
H 0.00700 6.02000 1.08400
H -0.63500 6.74400 -1.40500
H 0.66500 6.97000 -2.70400
H 1.04800 6.46600 -1.03600
H 0.60800 0.50100 -4.89100
H -0.69200 -2.15600 -4.54700
H -1.26700 0.74000 -6.12900
H -2.20400 0.71400 -4.59600
H -1.96700 -0.72000 -5.45300
H 1.35600 -1.75900 -5.96700
H 1.45200 -3.15700 -4.90200
H 2.71400 -0.52200 -4.79800
H 3.48700 -2.12100 -4.52900
H 2.49500 -1.30300 -3.24000
H 0.86700 -6.33300 -0.08400
H 0.40400 -5.64200 -1.68000
H -0.89100 -5.99900 -0.46300
H -1.28300 -3.58100 4.02800
H 0.69800 -4.47800 7.75500
H 0.83300 -2.61900 7.68000
H 2.00000 -3.75400 6.97600
Mg 13.14607 1.18336 1.00552
C 11.58748 -0.65604 3.66380
C 13.26124 3.85521 3.12273
C 14.10400 2.95727 -1.44459
C 11.88927 -1.20627 -1.19807
N 12.47959 1.44246 3.09859
C 11.95723 0.65568 4.02727
C 11.89760 1.28560 5.44473
C 11.90267 2.83430 5.02004
C 12.62341 2.71752 3.67855
C 10.51241 3.39383 4.76818
C 13.15362 0.92393 6.31286
C 13.01955 1.24522 7.80301
H 13.64801 0.34721 8.76794
N 14.05574 2.94692 0.97488
C 14.01363 3.90091 1.92851
C 14.83019 5.01408 1.42033
C 15.22263 4.70604 0.01825
C 14.44161 3.50822 -0.21698
C 15.23033 6.18432 2.27112
C 16.13822 5.38522 -0.95469
O 16.14672 5.07731 -2.19885
C 16.95750 6.48537 -0.42559
N 12.84119 1.03670 -1.04579
C 13.41354 1.90908 -1.89390
C 13.28045 1.44584 -3.32502
C 12.70902 -0.04554 -3.24247
C 12.51820 -0.15919 -1.71405
C 12.37002 2.29083 -4.21580
C 13.52113 -1.15166 -3.97023
C 14.85186 -1.35247 -3.28161
N 12.11429 -0.70656 1.18357
C 11.65706 -1.53111 0.13232
C 10.91442 -2.64994 0.74806
C 10.97191 -2.38423 2.12450
C 11.68172 -1.17381 2.34935
C 10.26011 -3.70077 0.04538
C 10.58440 -2.84687 3.43770
O 10.04177 -3.86010 3.87664
C 10.85679 -1.68226 4.48453
C 11.57564 -2.27699 5.66439
O 12.72287 -2.74008 5.53776
O 10.88245 -2.00573 6.78522
C 11.56144 -2.56573 7.98405
H 13.14044 4.81514 3.62554
H 14.50646 3.47297 -2.31955
H 11.55105 -2.04443 -1.81108
H 10.99960 1.05692 6.00605
H 12.48573 3.43263 5.71532
H 9.75606 2.62379 4.80162
H 10.55033 3.84446 3.78506
H 10.30233 4.20966 5.46577
H 13.97792 1.59879 6.04857
H 13.41868 -0.10796 6.18810
H 11.98061 1.45002 8.08868
H 13.54271 2.18322 8.00420
H 14.65670 6.21705 3.20562
H 14.92613 7.08912 1.73385
H 16.30663 6.22545 2.45153
H 16.30780 7.25178 -0.00969
H 17.61021 6.78522 -1.24774
H 17.56364 6.10290 0.40323
H 14.24551 1.42571 -3.81631
H 11.70767 -0.12361 -3.69083
H 12.87987 2.67884 -5.11779
H 11.97297 3.10466 -3.62372
H 11.46530 1.79102 -4.55766
H 13.74507 -0.84489 -4.99488
H 13.00249 -2.10299 -4.02495
H 15.47393 -0.56163 -3.71136
H 15.25485 -2.33785 -3.50672
H 14.77108 -1.16016 -2.20544
H 10.49441 -4.61827 0.56862
H 10.57864 -3.74254 -0.99412
H 9.21891 -3.38203 0.14315
H 9.89062 -1.26034 4.76395
H 10.83434 -3.20591 8.49317
H 11.94427 -1.69287 8.54557
H 12.37650 -3.26076 7.81952

