%nproc=24
%mem=175gb
#p cam-b3lyp/Def2SVP td=(nstates=5)

TDDFT excited states in gaussian

0 1
Mg 0.00000 0.00000 0.00000
C -0.21700 -2.21800 2.80100
C -1.25500 2.44200 2.02600
C -0.24500 1.85000 -2.56400
C 0.14600 -2.82400 -2.03700
N -0.61700 -0.00900 2.12600
C -0.59400 -0.90800 3.10500
C -0.93600 -0.30900 4.50200
C -1.77300 0.96400 4.03200
C -1.15500 1.16800 2.66000
C -3.26300 0.68500 3.86300
C 0.34500 0.11000 5.29900
C 0.12400 0.39700 6.78700
H 1.16800 0.03300 7.73300
N -0.18500 1.96100 -0.15200
C -0.70300 2.80000 0.77700
C -0.62000 4.15600 0.19300
C -0.18700 4.01500 -1.22500
C -0.21400 2.58300 -1.38000
C -0.88700 5.40600 0.97400
C 0.18100 5.01300 -2.27700
O 0.30300 4.69000 -3.50800
C 0.31000 6.41400 -1.83700
N -0.26500 -0.41300 -2.02900
C -0.27900 0.56900 -2.93700
C -0.19600 0.02400 -4.33200
C 0.12400 -1.53300 -4.18000
C 0.08600 -1.63200 -2.63500
C -1.45100 0.20500 -5.19700
C 1.37300 -2.07000 -4.92300
C 2.62600 -1.49000 -4.30600
N 0.15000 -2.14400 0.30300
C 0.17300 -3.13600 -0.68800
C 0.17300 -4.43800 0.00400
C 0.13300 -4.11100 1.35800
C 0.08300 -2.69500 1.50200
C 0.14900 -5.71500 -0.62300
C 0.09600 -4.62900 2.71600
O 0.20800 -5.74700 3.22100
C -0.25500 -3.42800 3.70100
C 0.71700 -3.48200 4.84800
O 1.93100 -3.25500 4.66900
O 0.03800 -3.55600 6.00300
C 0.94300 -3.58300 7.18300
H -1.85900 3.22000 2.49700
H -0.21800 2.45300 -3.47400
H 0.27600 -3.74700 -2.60500
H -1.55400 -0.94900 5.13200
H -1.58500 1.83100 4.66500
H -3.48400 -0.37700 3.96900
H -3.51100 1.02700 2.85800
H -3.85200 1.30100 4.54300
H 0.66900 1.09600 4.96600
H 1.13000 -0.63900 5.18900
H -0.84400 0.02600 7.12500
H 0.06200 1.47700 6.92100
H -1.34400 5.18600 1.93800
H -1.65100 5.96300 0.43200
H 0.00700 6.02000 1.08400
H -0.63500 6.74400 -1.40500
H 0.66500 6.97000 -2.70400
H 1.04800 6.46600 -1.03600
H 0.60800 0.50100 -4.89100
H -0.69200 -2.15600 -4.54700
H -1.26700 0.74000 -6.12900
H -2.20400 0.71400 -4.59600
H -1.96700 -0.72000 -5.45300
H 1.35600 -1.75900 -5.96700
H 1.45200 -3.15700 -4.90200
H 2.71400 -0.52200 -4.79800
H 3.48700 -2.12100 -4.52900
H 2.49500 -1.30300 -3.24000
H 0.86700 -6.33300 -0.08400
H 0.40400 -5.64200 -1.68000
H -0.89100 -5.99900 -0.46300
H -1.28300 -3.58100 4.02800
H 0.69800 -4.47800 7.75500
H 0.83300 -2.61900 7.68000
H 2.00000 -3.75400 6.97600
Mg 8.92563 0.80588 0.68468
C 10.24069 3.00965 3.19328
C 8.18486 -1.37431 3.20115
C 8.17458 -1.33943 -1.52914
C 10.76918 2.60403 -1.66345
N 9.22222 0.91689 2.87373
C 9.67585 1.82936 3.71988
C 9.44208 1.49117 5.21672
C 9.33279 -0.10583 5.08820
C 8.84914 -0.20219 3.64270
C 10.67495 -0.81110 5.19081
C 8.11299 2.11521 5.77000
C 7.97494 2.08716 7.29378
H 7.30576 3.20540 7.95273
N 7.84293 -0.85200 0.81793
C 7.62907 -1.59765 1.92226
C 6.78461 -2.72238 1.49096
C 6.65378 -2.66958 0.00947
C 7.58952 -1.60720 -0.30009
C 6.12899 -3.66518 2.45777
C 5.83309 -3.45503 -0.96815
O 6.05424 -3.40095 -2.22950
C 4.82443 -4.36058 -0.39889
N 9.56334 0.51747 -1.27300
C 9.03854 -0.45870 -2.03431
C 9.44516 -0.30111 -3.48007
C 10.15771 1.12762 -3.57268
C 10.11738 1.52765 -2.08145
C 10.38529 -1.37482 -4.02753
C 9.59722 2.12693 -4.62144
C 8.20524 2.56397 -4.22549
N 10.11895 2.60699 0.69235
C 10.82391 3.16776 -0.39514
C 11.57955 4.32519 0.12620
C 11.27752 4.34379 1.49621
C 10.41191 3.26146 1.81052
C 12.44814 5.16094 -0.63090
C 11.50259 5.02660 2.74993
O 12.07805 6.06133 3.08446
C 10.94216 4.11829 3.92776
C 10.11700 4.99005 4.83422
O 9.06217 5.50688 4.42577
O 10.59123 4.89377 6.08970
C 9.79837 5.73225 7.02786
H 8.11840 -2.22154 3.88428
H 7.86012 -1.98576 -2.35185
H 11.28999 3.27453 -2.35037
H 10.26043 1.75604 5.87545
H 8.58526 -0.50655 5.76790
H 11.49701 -0.11127 5.21505
H 10.74243 -1.44386 4.31553
H 10.68141 -1.48580 6.05166
H 7.27103 1.46776 5.49312
H 7.98643 3.11917 5.41412
H 8.92704 1.86274 7.78986
H 7.32632 1.25168 7.56814
H 6.54151 -3.55615 3.46839
H 6.41202 -4.67968 2.15686
H 5.03984 -3.58543 2.45097
H 5.31204 -5.07735 0.25757
H 4.27993 -4.76601 -1.25389
H 4.14160 -3.77481 0.22658
H 8.57749 -0.30376 -4.12833
H 11.21949 1.03652 -3.84499
H 9.98379 -1.89340 -4.91856
H 10.59203 -2.08315 -3.23628
H 11.38208 -1.02520 -4.29089
H 9.50456 1.64100 -5.59583
H 10.21987 3.00491 -4.75734
H 7.57493 1.75452 -4.60575
H 7.95396 3.51331 -4.69415
H 8.09419 2.58377 -3.13511
H 12.23733 6.17960 -0.33362
H 12.30348 5.01993 -1.70000
H 13.41940 4.78767 -0.29535
H 11.79985 3.68621 4.44473
H 10.50264 6.40209 7.53086
H 9.23804 5.02109 7.66349
H 9.10109 6.44217 6.59860

