%nproc=24
%mem=175gb
#p cam-b3lyp/Def2SVP td=(nstates=5)

TDDFT excited states in gaussian

0 1
Mg 0.00000 0.00000 0.00000
C -0.21700 -2.21800 2.80100
C -1.25500 2.44200 2.02600
C -0.24500 1.85000 -2.56400
C 0.14600 -2.82400 -2.03700
N -0.61700 -0.00900 2.12600
C -0.59400 -0.90800 3.10500
C -0.93600 -0.30900 4.50200
C -1.77300 0.96400 4.03200
C -1.15500 1.16800 2.66000
C -3.26300 0.68500 3.86300
C 0.34500 0.11000 5.29900
C 0.12400 0.39700 6.78700
H 1.16800 0.03300 7.73300
N -0.18500 1.96100 -0.15200
C -0.70300 2.80000 0.77700
C -0.62000 4.15600 0.19300
C -0.18700 4.01500 -1.22500
C -0.21400 2.58300 -1.38000
C -0.88700 5.40600 0.97400
C 0.18100 5.01300 -2.27700
O 0.30300 4.69000 -3.50800
C 0.31000 6.41400 -1.83700
N -0.26500 -0.41300 -2.02900
C -0.27900 0.56900 -2.93700
C -0.19600 0.02400 -4.33200
C 0.12400 -1.53300 -4.18000
C 0.08600 -1.63200 -2.63500
C -1.45100 0.20500 -5.19700
C 1.37300 -2.07000 -4.92300
C 2.62600 -1.49000 -4.30600
N 0.15000 -2.14400 0.30300
C 0.17300 -3.13600 -0.68800
C 0.17300 -4.43800 0.00400
C 0.13300 -4.11100 1.35800
C 0.08300 -2.69500 1.50200
C 0.14900 -5.71500 -0.62300
C 0.09600 -4.62900 2.71600
O 0.20800 -5.74700 3.22100
C -0.25500 -3.42800 3.70100
C 0.71700 -3.48200 4.84800
O 1.93100 -3.25500 4.66900
O 0.03800 -3.55600 6.00300
C 0.94300 -3.58300 7.18300
H -1.85900 3.22000 2.49700
H -0.21800 2.45300 -3.47400
H 0.27600 -3.74700 -2.60500
H -1.55400 -0.94900 5.13200
H -1.58500 1.83100 4.66500
H -3.48400 -0.37700 3.96900
H -3.51100 1.02700 2.85800
H -3.85200 1.30100 4.54300
H 0.66900 1.09600 4.96600
H 1.13000 -0.63900 5.18900
H -0.84400 0.02600 7.12500
H 0.06200 1.47700 6.92100
H -1.34400 5.18600 1.93800
H -1.65100 5.96300 0.43200
H 0.00700 6.02000 1.08400
H -0.63500 6.74400 -1.40500
H 0.66500 6.97000 -2.70400
H 1.04800 6.46600 -1.03600
H 0.60800 0.50100 -4.89100
H -0.69200 -2.15600 -4.54700
H -1.26700 0.74000 -6.12900
H -2.20400 0.71400 -4.59600
H -1.96700 -0.72000 -5.45300
H 1.35600 -1.75900 -5.96700
H 1.45200 -3.15700 -4.90200
H 2.71400 -0.52200 -4.79800
H 3.48700 -2.12100 -4.52900
H 2.49500 -1.30300 -3.24000
H 0.86700 -6.33300 -0.08400
H 0.40400 -5.64200 -1.68000
H -0.89100 -5.99900 -0.46300
H -1.28300 -3.58100 4.02800
H 0.69800 -4.47800 7.75500
H 0.83300 -2.61900 7.68000
H 2.00000 -3.75400 6.97600
Mg 10.50687 0.95422 0.80421
C 12.74898 0.94681 3.60635
C 7.97950 0.35642 3.01547
C 8.57727 0.50750 -1.67460
C 13.27840 0.41091 -1.23763
N 10.49174 0.70483 3.00190
C 11.39523 0.78375 3.96721
C 10.80586 0.76267 5.40309
C 9.42372 0.00956 5.08469
C 9.26168 0.40562 3.61855
C 9.53171 -1.50431 5.16136
C 10.55708 2.20511 5.96832
C 10.27541 2.26718 7.47117
H 10.77852 3.41093 8.22695
N 8.52544 0.98594 0.69704
C 7.65244 0.74169 1.69679
C 6.31317 0.86995 1.10173
C 6.46782 1.04755 -0.36771
C 7.89310 0.82827 -0.51118
C 5.05709 0.89845 1.92323
C 5.49209 1.35036 -1.46428
O 5.80784 1.22491 -2.70016
C 4.12817 1.70795 -1.04793
N 10.84080 0.31227 -1.14482
C 9.83581 0.25753 -2.03641
C 10.35919 0.03491 -3.43531
C 11.94706 0.19366 -3.33028
C 12.08031 0.40142 -1.80565
C 10.02365 -1.31745 -4.06374
C 12.61528 1.22686 -4.27824
C 12.19534 2.62725 -3.89362
N 12.65005 0.90128 1.07263
C 13.62647 0.63106 0.08893
C 14.93511 0.59302 0.77336
C 14.62423 0.82274 2.12209
C 13.21885 0.97193 2.27093
C 16.18894 0.32182 0.15653
C 15.16434 0.96238 3.45531
O 16.29712 1.01654 3.93241
C 13.96209 0.92312 4.49428
C 14.14563 2.06139 5.46028
O 14.06911 3.23984 5.07037
O 14.16413 1.57587 6.71499
C 14.33304 2.66828 7.70994
H 7.15059 -0.05560 3.59169
H 7.96804 0.45164 -2.57970
H 14.20057 0.34444 -1.81890
H 11.38232 0.19345 6.12243
H 8.60847 0.41157 5.68059
H 10.55202 -1.82883 5.30199
H 9.14289 -1.87491 4.22193
H 8.86466 -1.89100 5.93715
H 9.60081 2.58095 5.58226
H 11.37535 2.85531 5.72687
H 10.53210 1.32887 7.97774
H 9.19709 2.36495 7.61838
H 5.24479 0.58073 2.95630
H 4.39268 0.12739 1.51839
H 4.54695 1.86308 1.87944
H 3.70592 0.89692 -0.45939
H 3.60291 1.97576 -1.96677
H 4.18141 2.58106 -0.38804
H 9.97527 0.78503 -4.11578
H 12.46702 -0.74652 -3.56594
H 9.48371 -1.22992 -5.02544
H 9.44311 -1.88975 -3.35242
H 10.87778 -1.96855 -4.24188
H 12.27669 1.07248 -5.30571
H 13.69867 1.17005 -4.28421
H 11.22800 2.74050 -4.39214
H 12.91531 3.35695 -4.25864
H 12.02073 2.70325 -2.81409
H 16.89559 1.03405 0.56133
H 16.12362 0.39731 -0.92690
H 16.35040 -0.70765 0.48728
H 13.99193 -0.04622 4.99335
H 15.20761 2.41500 8.31712
H 13.36202 2.74794 8.23389
H 14.61075 3.64723 7.33712

