%nproc=24
%mem=175gb
#p cam-b3lyp/Def2SVP td=(nstates=5)

TDDFT excited states in gaussian

0 1
Mg 7.89116 0.70715 0.59238
C 7.63615 3.30871 -1.86646
C 7.40134 -1.52713 -1.93797
C 7.66104 -1.57463 2.78509
C 7.22068 3.12157 3.01452
N 7.57281 0.97789 -1.57962
C 7.55698 2.00961 -2.41006
C 7.53110 1.62470 -3.91364
C 6.88751 0.15989 -3.77582
C 7.34097 -0.17374 -2.35605
C 5.36811 0.16511 -3.80311
C 8.96850 1.56395 -4.53991
C 9.00175 1.49835 -6.06842
H 10.08243 2.18445 -6.77119
N 8.06533 -1.26221 0.41966
C 7.85088 -2.00412 -0.68708
C 8.09193 -3.39965 -0.28887
C 8.30547 -3.43712 1.18344
C 7.99142 -2.06559 1.53035
C 8.18206 -4.52437 -1.27897
C 8.71117 -4.53010 2.12525
O 8.60374 -4.39858 3.39568
C 9.15003 -5.79304 1.51379
N 7.29045 0.71972 2.58270
C 7.33513 -0.40025 3.32539
C 7.12149 -0.09343 4.78847
C 7.16493 1.50106 4.90387
C 7.31362 1.85902 3.40883
C 5.81696 -0.61185 5.39331
C 8.17866 2.10627 5.91319
C 9.59197 1.84839 5.44258
N 7.67930 2.85700 0.62867
C 7.37303 3.66520 1.74541
C 7.22120 5.04953 1.25244
C 7.42862 4.94615 -0.13132
C 7.67122 3.58982 -0.47920
C 6.88266 6.18239 2.04499
C 7.48700 5.67440 -1.37829
O 7.44612 6.86317 -1.69274
C 7.49878 4.62792 -2.57459
C 8.58967 5.02710 -3.53017
O 9.78252 4.98478 -3.18099
O 8.06390 5.18308 -4.75883
C 9.10915 5.56843 -5.74411
H 7.03018 -2.29651 -2.61558
H 7.67726 -2.30570 3.59672
H 7.10840 3.94696 3.72079
H 6.89995 2.25144 -4.53219
H 7.32635 -0.53305 -4.48899
H 4.96841 1.16824 -3.79195
H 5.05616 -0.37631 -2.91960
H 5.00442 -0.41492 -4.65612
H 9.42277 0.59392 -4.30029
H 9.56709 2.38680 -4.20043
H 8.03191 1.75252 -6.51310
H 9.17018 0.46099 -6.36765
H 7.81885 -4.21955 -2.26819
H 7.47298 -5.29364 -0.95445
H 9.18103 -4.96286 -1.32853
H 8.35211 -6.18863 0.88987
H 9.48350 -6.41914 2.34366
H 9.99555 -5.58453 0.84878
H 7.91823 -0.51124 5.39158
H 6.19864 1.91238 5.23089
H 5.97310 -1.27171 6.26753
H 5.26421 -1.12911 4.62037
H 5.11358 0.15886 5.70391
H 8.08160 1.61826 6.88611
H 8.04617 3.17120 6.07241
H 9.78882 0.83243 5.79778
H 10.28069 2.56292 5.88883
H 9.64523 1.83096 4.34782
H 7.53013 6.98901 1.72775
H 6.99741 5.97353 3.10659
H 5.83429 6.31144 1.76300
H 6.51418 4.65473 -3.04300
H 8.77568 6.49744 -6.21679
H 9.23985 4.68784 -6.40079
H 10.07768 5.86354 -5.35772

