%nproc=24
%mem=175gb
#p cam-b3lyp/Def2SVP td=(nstates=5)

TDDFT excited states in gaussian

0 1
Mg 31.53960 2.83682 2.40300
C 29.39873 1.51437 4.96168
C 32.40232 5.29541 4.60427
C 33.08221 4.27868 0.03471
C 29.68202 1.00209 0.09456
N 30.91455 3.24474 4.48510
C 30.14310 2.63883 5.37510
C 30.23257 3.22568 6.80938
C 30.73059 4.70531 6.43317
C 31.42545 4.39974 5.10784
C 29.59081 5.67337 6.16281
C 31.28481 2.47408 7.69816
C 31.20565 2.78907 9.19358
H 31.49236 1.72004 10.14618
N 32.95027 4.23191 2.45063
C 33.17243 5.13132 3.43195
C 34.30996 5.94729 2.97986
C 34.63577 5.56294 1.57956
C 33.53132 4.67144 1.28714
C 35.02280 6.91740 3.87661
C 35.74920 5.94567 0.65221
O 35.70473 5.67704 -0.60027
C 36.84976 6.72618 1.23621
N 31.27476 2.83587 0.34091
C 32.11741 3.50592 -0.46463
C 31.89677 3.13753 -1.91238
C 30.88990 1.89522 -1.89094
C 30.62107 1.81355 -0.37224
C 31.32314 4.24194 -2.79986
C 31.34481 0.60776 -2.63134
C 32.52392 -0.01024 -1.91499
N 29.96876 1.35629 2.49558
C 29.31536 0.73675 1.40777
C 28.24266 -0.10981 1.96908
C 28.33228 0.09542 3.35412
C 29.37330 1.02120 3.63470
C 27.32008 -0.89085 1.21744
C 27.77601 -0.25242 4.64186
O 26.93210 -1.05679 5.03497
C 28.35899 0.74774 5.73100
C 28.81798 -0.06563 6.91009
O 29.76954 -0.85860 6.79897
O 28.20459 0.38298 8.02045
C 28.63578 -0.38543 9.21855
H 32.56696 6.23452 5.13329
H 33.65407 4.66292 -0.81312
H 29.12252 0.32334 -0.55270
H 29.28919 3.27454 7.33987
H 31.44585 5.07846 7.16154
H 28.63282 5.17507 6.15274
H 29.79979 6.11104 5.19543
H 29.61940 6.49898 6.87966
H 32.28587 2.86579 7.47638
H 31.22208 1.41377 7.54840
H 30.27173 3.29955 9.45842
H 31.98589 3.51424 9.43723
H 34.45572 7.10624 4.79648
H 35.03173 7.88323 3.35993
H 36.05228 6.61912 4.08605
H 36.45489 7.64709 1.65868
H 37.59094 6.82657 0.44095
H 37.27925 6.15704 2.06821
H 32.82458 2.82988 -2.37887
H 29.92942 2.14092 -2.36732
H 31.95853 4.47211 -3.67586
H 31.17702 5.12585 -2.19333
H 30.32050 4.05454 -3.18039
H 31.68756 0.85194 -3.63983
H 30.55974 -0.13462 -2.72894
H 33.37429 0.55793 -2.30375
H 32.61009 -1.06692 -2.16001
H 32.46973 0.17452 -0.83583
H 27.24127 -1.84679 1.71789
H 27.64552 -1.00697 0.18575
H 26.42566 -0.26732 1.29801
H 27.56155 1.44219 5.99821
H 27.72944 -0.77955 9.68855
H 29.25017 0.31359 9.81658
H 29.20126 -1.29511 9.05374

