%nproc=24
%mem=175gb
#p cam-b3lyp/Def2SVP td=(nstates=5)

TDDFT excited states in gaussian

0 1
Mg 0.00000 0.00000 0.00000
C -0.21700 -2.21800 2.80100
C -1.25500 2.44200 2.02600
C -0.24500 1.85000 -2.56400
C 0.14600 -2.82400 -2.03700
N -0.61700 -0.00900 2.12600
C -0.59400 -0.90800 3.10500
C -0.93600 -0.30900 4.50200
C -1.77300 0.96400 4.03200
C -1.15500 1.16800 2.66000
C -3.26300 0.68500 3.86300
C 0.34500 0.11000 5.29900
C 0.12400 0.39700 6.78700
H 1.16800 0.03300 7.73300
N -0.18500 1.96100 -0.15200
C -0.70300 2.80000 0.77700
C -0.62000 4.15600 0.19300
C -0.18700 4.01500 -1.22500
C -0.21400 2.58300 -1.38000
C -0.88700 5.40600 0.97400
C 0.18100 5.01300 -2.27700
O 0.30300 4.69000 -3.50800
C 0.31000 6.41400 -1.83700
N -0.26500 -0.41300 -2.02900
C -0.27900 0.56900 -2.93700
C -0.19600 0.02400 -4.33200
C 0.12400 -1.53300 -4.18000
C 0.08600 -1.63200 -2.63500
C -1.45100 0.20500 -5.19700
C 1.37300 -2.07000 -4.92300
C 2.62600 -1.49000 -4.30600
N 0.15000 -2.14400 0.30300
C 0.17300 -3.13600 -0.68800
C 0.17300 -4.43800 0.00400
C 0.13300 -4.11100 1.35800
C 0.08300 -2.69500 1.50200
C 0.14900 -5.71500 -0.62300
C 0.09600 -4.62900 2.71600
O 0.20800 -5.74700 3.22100
C -0.25500 -3.42800 3.70100
C 0.71700 -3.48200 4.84800
O 1.93100 -3.25500 4.66900
O 0.03800 -3.55600 6.00300
C 0.94300 -3.58300 7.18300
H -1.85900 3.22000 2.49700
H -0.21800 2.45300 -3.47400
H 0.27600 -3.74700 -2.60500
H -1.55400 -0.94900 5.13200
H -1.58500 1.83100 4.66500
H -3.48400 -0.37700 3.96900
H -3.51100 1.02700 2.85800
H -3.85200 1.30100 4.54300
H 0.66900 1.09600 4.96600
H 1.13000 -0.63900 5.18900
H -0.84400 0.02600 7.12500
H 0.06200 1.47700 6.92100
H -1.34400 5.18600 1.93800
H -1.65100 5.96300 0.43200
H 0.00700 6.02000 1.08400
H -0.63500 6.74400 -1.40500
H 0.66500 6.97000 -2.70400
H 1.04800 6.46600 -1.03600
H 0.60800 0.50100 -4.89100
H -0.69200 -2.15600 -4.54700
H -1.26700 0.74000 -6.12900
H -2.20400 0.71400 -4.59600
H -1.96700 -0.72000 -5.45300
H 1.35600 -1.75900 -5.96700
H 1.45200 -3.15700 -4.90200
H 2.71400 -0.52200 -4.79800
H 3.48700 -2.12100 -4.52900
H 2.49500 -1.30300 -3.24000
H 0.86700 -6.33300 -0.08400
H 0.40400 -5.64200 -1.68000
H -0.89100 -5.99900 -0.46300
H -1.28300 -3.58100 4.02800
H 0.69800 -4.47800 7.75500
H 0.83300 -2.61900 7.68000
H 2.00000 -3.75400 6.97600
Mg 15.76692 1.42413 1.20713
C 14.12318 -0.99562 3.28607
C 13.37134 3.65479 2.16625
C 16.92110 3.44120 -0.95313
C 17.30408 -1.23715 -0.43618
N 14.02486 1.23545 2.55689
C 13.53529 0.28539 3.33924
C 12.39990 0.75496 4.28789
C 11.89087 2.02315 3.44441
C 13.18157 2.35428 2.69801
C 10.82285 1.67567 2.42072
C 12.93799 1.18188 5.69864
C 11.86116 1.35626 6.77186
H 12.18146 0.98185 8.14652
N 15.54438 3.38879 1.03639
C 14.52266 4.13574 1.50483
C 14.81828 5.51946 1.10224
C 16.01386 5.50495 0.21619
C 16.19772 4.07773 0.04492
C 14.04758 6.69952 1.61888
C 16.84540 6.59534 -0.38862
O 17.69388 6.35751 -1.31939
C 16.57072 7.96316 0.07519
N 16.77610 1.14157 -0.58844
C 17.21304 2.18982 -1.30828
C 18.14542 1.74460 -2.40957
C 18.43548 0.19737 -2.12761
C 17.50945 -0.01592 -0.91008
C 17.61924 1.91198 -3.83488
C 19.92424 -0.22910 -2.00763
C 20.53500 0.37341 -0.76291
N 15.88602 -0.71524 1.48458
C 16.56274 -1.64525 0.66530
C 16.25975 -2.99149 1.19281
C 15.40243 -2.75070 2.27703
C 15.17023 -1.35439 2.40305
C 16.71864 -4.22240 0.64473
C 14.63260 -3.36098 3.33704
O 14.51202 -4.50411 3.77572
C 13.66914 -2.26079 3.95972
C 13.78383 -2.33705 5.45757
O 14.85232 -2.04924 6.02511
O 12.56001 -2.52485 5.98421
C 12.62043 -2.59601 7.46850
H 12.54505 4.36399 2.22256
H 17.43098 4.10048 -1.65942
H 17.82328 -2.11222 -0.83287
H 11.59180 0.04471 4.41558
H 11.60697 2.84398 4.09786
H 10.66657 0.60967 2.34752
H 11.17863 2.07148 1.47849
H 9.89745 2.21441 2.64374
H 13.31487 2.21118 5.64165
H 13.68558 0.49508 6.04509
H 10.90199 0.91956 6.46816
H 11.64805 2.42256 6.87957
H 13.12372 6.38777 2.12156
H 13.70425 7.26444 0.74547
H 14.65308 7.35525 2.24822
H 15.52978 8.20885 -0.12111
H 17.32438 8.59108 -0.40397
H 16.70244 7.99698 1.16244
H 19.08007 2.29041 -2.36920
H 18.04783 -0.44328 -2.93330
H 18.27839 2.52955 -4.47378
H 16.62752 2.34149 -3.78438
H 17.44142 0.98280 -4.37360
H 20.49825 0.15745 -2.85335
H 20.06517 -1.30461 -1.98745
H 20.81164 1.38122 -1.08677
H 21.40908 -0.19493 -0.45145
H 19.78736 0.47626 0.03215
H 17.02879 -4.83807 1.47854
H 17.53336 -4.06507 -0.05901
H 15.80759 -4.56629 0.14774
H 12.65750 -2.47832 3.61500
H 12.15581 -3.54236 7.76216
H 12.14324 -1.66648 7.83182
H 13.59821 -2.68939 7.92640

