%nproc=24
%mem=175gb
#p cam-b3lyp/Def2SVP td=(nstates=5)

TDDFT excited states in gaussian

0 1
Mg 15.77381 1.42257 1.19091
C 15.24554 4.97219 1.20575
C 15.13885 1.49254 -2.15969
C 15.78806 -1.75016 1.22267
C 15.23898 1.46848 4.63439
N 15.27024 3.07924 -0.18536
C 15.15764 4.39459 -0.07803
C 15.01856 5.14084 -1.43204
C 14.42908 3.93398 -2.31231
C 15.00700 2.75615 -1.53040
C 12.91304 3.84006 -2.26622
C 16.40059 5.63488 -1.98695
C 16.30958 6.63451 -3.14204
H 17.30938 7.69567 -3.22458
N 15.98730 0.12432 -0.29487
C 15.70290 0.32574 -1.59864
C 16.01426 -0.94103 -2.27871
C 16.34934 -1.95818 -1.24535
C 16.02730 -1.22368 -0.03833
C 16.05344 -1.07391 -3.77345
C 16.86121 -3.36425 -1.32998
O 16.85524 -4.14531 -0.31375
C 17.28279 -3.82954 -2.65937
N 15.33902 0.02535 2.66776
C 15.47556 -1.29187 2.43496
C 15.37484 -2.08549 3.71575
C 15.38372 -1.00352 4.89340
C 15.39881 0.28955 4.04894
C 14.13935 -2.97513 3.85167
C 16.46013 -1.17638 5.99981
C 17.83641 -0.93369 5.42332
N 15.50655 2.94221 2.70330
C 15.27121 2.74220 4.08123
C 15.04123 4.07244 4.68122
C 15.13669 4.95905 3.59802
C 15.38704 4.23078 2.40368
C 14.73808 4.32721 6.04845
C 15.07205 6.34446 3.19165
O 14.97268 7.41923 3.78218
C 15.01402 6.40332 1.60434
C 16.01106 7.42978 1.14084
O 17.22933 7.25177 1.31611
O 15.38174 8.34250 0.37843
C 16.33124 9.37572 -0.11424
H 14.73444 1.36871 -3.16468
H 15.89122 -2.83436 1.30830
H 15.16260 1.57634 5.71846
H 14.32157 5.97025 -1.42410
H 14.82658 3.95200 -3.32376
H 12.48815 4.53002 -1.55238
H 12.68997 2.81926 -1.98469
H 12.49640 3.97414 -3.26860
H 16.89959 4.80172 -2.49839
H 17.00224 6.04604 -1.19981
H 15.29976 7.04867 -3.25013
H 16.48128 6.09886 -4.07885
H 15.60169 -0.20433 -4.26657
H 15.39496 -1.90846 -4.03764
H 17.05661 -1.28184 -4.15169
H 16.44736 -3.75139 -3.35104
H 17.70062 -4.82570 -2.50138
H 18.06457 -3.15889 -3.03308
H 16.22976 -2.73998 3.83340
H 14.43672 -1.00244 5.45288
H 14.38510 -4.03971 4.02589
H 13.53924 -2.86469 2.95825
H 13.44301 -2.68181 4.63543
H 16.45704 -2.20305 6.37410
H 16.31194 -0.52227 6.85256
H 18.08976 -1.89890 4.97470
H 18.53964 -0.66723 6.20977
H 17.79975 -0.19402 4.61511
H 15.33476 5.17919 6.34612
H 14.94562 3.45881 6.67020
H 13.66688 4.53333 5.97558
H 13.99381 6.66752 1.32339
H 15.93451 10.34765 0.19501
H 16.43158 9.19530 -1.20104
H 17.31983 9.40005 0.32910

