%nproc=24
%mem=175gb
#p cam-b3lyp/Def2SVP td=(nstates=5)

TDDFT excited states in gaussian

0 1
Mg 0.00000 0.00000 0.00000
C -0.21700 -2.21800 2.80100
C -1.25500 2.44200 2.02600
C -0.24500 1.85000 -2.56400
C 0.14600 -2.82400 -2.03700
N -0.61700 -0.00900 2.12600
C -0.59400 -0.90800 3.10500
C -0.93600 -0.30900 4.50200
C -1.77300 0.96400 4.03200
C -1.15500 1.16800 2.66000
C -3.26300 0.68500 3.86300
C 0.34500 0.11000 5.29900
C 0.12400 0.39700 6.78700
H 1.16800 0.03300 7.73300
N -0.18500 1.96100 -0.15200
C -0.70300 2.80000 0.77700
C -0.62000 4.15600 0.19300
C -0.18700 4.01500 -1.22500
C -0.21400 2.58300 -1.38000
C -0.88700 5.40600 0.97400
C 0.18100 5.01300 -2.27700
O 0.30300 4.69000 -3.50800
C 0.31000 6.41400 -1.83700
N -0.26500 -0.41300 -2.02900
C -0.27900 0.56900 -2.93700
C -0.19600 0.02400 -4.33200
C 0.12400 -1.53300 -4.18000
C 0.08600 -1.63200 -2.63500
C -1.45100 0.20500 -5.19700
C 1.37300 -2.07000 -4.92300
C 2.62600 -1.49000 -4.30600
N 0.15000 -2.14400 0.30300
C 0.17300 -3.13600 -0.68800
C 0.17300 -4.43800 0.00400
C 0.13300 -4.11100 1.35800
C 0.08300 -2.69500 1.50200
C 0.14900 -5.71500 -0.62300
C 0.09600 -4.62900 2.71600
O 0.20800 -5.74700 3.22100
C -0.25500 -3.42800 3.70100
C 0.71700 -3.48200 4.84800
O 1.93100 -3.25500 4.66900
O 0.03800 -3.55600 6.00300
C 0.94300 -3.58300 7.18300
H -1.85900 3.22000 2.49700
H -0.21800 2.45300 -3.47400
H 0.27600 -3.74700 -2.60500
H -1.55400 -0.94900 5.13200
H -1.58500 1.83100 4.66500
H -3.48400 -0.37700 3.96900
H -3.51100 1.02700 2.85800
H -3.85200 1.30100 4.54300
H 0.66900 1.09600 4.96600
H 1.13000 -0.63900 5.18900
H -0.84400 0.02600 7.12500
H 0.06200 1.47700 6.92100
H -1.34400 5.18600 1.93800
H -1.65100 5.96300 0.43200
H 0.00700 6.02000 1.08400
H -0.63500 6.74400 -1.40500
H 0.66500 6.97000 -2.70400
H 1.04800 6.46600 -1.03600
H 0.60800 0.50100 -4.89100
H -0.69200 -2.15600 -4.54700
H -1.26700 0.74000 -6.12900
H -2.20400 0.71400 -4.59600
H -1.96700 -0.72000 -5.45300
H 1.35600 -1.75900 -5.96700
H 1.45200 -3.15700 -4.90200
H 2.71400 -0.52200 -4.79800
H 3.48700 -2.12100 -4.52900
H 2.49500 -1.30300 -3.24000
H 0.86700 -6.33300 -0.08400
H 0.40400 -5.64200 -1.68000
H -0.89100 -5.99900 -0.46300
H -1.28300 -3.58100 4.02800
H 0.69800 -4.47800 7.75500
H 0.83300 -2.61900 7.68000
H 2.00000 -3.75400 6.97600
Mg 7.89055 0.70921 0.60639
C 6.07935 -0.94598 3.22536
C 8.31282 3.32440 2.75512
C 9.09498 2.37282 -1.81211
C 6.37230 -1.48176 -1.63867
N 7.23496 1.02931 2.69445
C 6.60608 0.30525 3.60801
C 6.60772 0.92366 5.03178
C 6.81256 2.46357 4.62487
C 7.53016 2.27042 3.29054
C 5.50686 3.19576 4.36338
C 7.79714 0.39853 5.91016
C 7.68527 0.71939 7.40223
H 8.18359 -0.25993 8.36404
N 9.01465 2.34474 0.60637
C 9.08031 3.28701 1.57026
C 10.03659 4.29374 1.08427
C 10.40529 3.95269 -0.31661
C 9.48323 2.86486 -0.57449
C 10.56942 5.39599 1.95292
C 11.41133 4.52105 -1.27111
O 11.39714 4.22680 -2.51853
C 12.35530 5.50429 -0.72008
N 7.59612 0.62225 -1.44984
C 8.28430 1.42415 -2.28128
C 8.11257 0.99544 -3.71903
C 7.35749 -0.41309 -3.66010
C 7.13425 -0.51694 -2.13537
C 7.32692 1.95685 -4.61057
C 8.03368 -1.60522 -4.39102
C 9.31972 -1.97839 -3.68941
N 6.62756 -1.03780 0.75096
C 6.08405 -1.78796 -0.31484
C 5.19901 -2.81066 0.27949
C 5.27166 -2.56787 1.65945
C 6.12480 -1.45849 1.90626
C 4.42712 -3.76399 -0.44263
C 4.81228 -2.99111 2.96272
O 4.14119 -3.93243 3.38379
C 5.21516 -1.88032 4.02585
C 5.83844 -2.57226 5.20706
O 6.92002 -3.17452 5.08840
O 5.17039 -2.22715 6.32284
C 5.75824 -2.87981 7.52296
H 8.30697 4.28689 3.26742
H 9.57021 2.84249 -2.67643
H 5.93950 -2.26470 -2.26506
H 5.68097 0.80406 5.58005
H 7.45709 2.97702 5.33361
H 4.65949 2.52654 4.37931
H 5.61368 3.64774 3.38596
H 5.39185 4.02460 5.06776
H 8.70294 0.96707 5.66311
H 7.93220 -0.65720 5.77671
H 6.67665 1.05025 7.67821
H 8.31937 1.58222 7.62013
H 9.99244 5.49131 2.88104
H 10.38812 6.33710 1.42252
H 11.63997 5.29982 2.14618
H 11.80161 6.34210 -0.30299
H 13.05101 5.72788 -1.53118
H 12.89793 5.04056 0.11126
H 9.07372 0.85910 -4.19936
H 6.36011 -0.36032 -4.12085
H 7.89300 2.28662 -5.50212
H 7.02754 2.80823 -4.01386
H 6.37110 1.57805 -4.96852
H 8.30752 -1.31892 -5.40944
H 7.40051 -2.48328 -4.46256
H 10.04159 -1.26776 -4.10292
H 9.59873 -3.00431 -3.92109
H 9.24986 -1.78808 -2.61212
H 4.53767 -4.70878 0.07278
H 4.75125 -3.83519 -1.47880
H 3.43297 -3.31796 -0.35324
H 4.30606 -1.34316 4.29890
H 4.95007 -3.42857 8.01632
H 6.24032 -2.06753 8.09878
H 6.48170 -3.67005 7.35993

