%nproc=24
%mem=175gb
#p cam-b3lyp/Def2SVP td=(nstates=5)

TDDFT excited states in gaussian

0 1
Mg 0.00000 0.00000 0.00000
C -0.21700 -2.21800 2.80100
C -1.25500 2.44200 2.02600
C -0.24500 1.85000 -2.56400
C 0.14600 -2.82400 -2.03700
N -0.61700 -0.00900 2.12600
C -0.59400 -0.90800 3.10500
C -0.93600 -0.30900 4.50200
C -1.77300 0.96400 4.03200
C -1.15500 1.16800 2.66000
C -3.26300 0.68500 3.86300
C 0.34500 0.11000 5.29900
C 0.12400 0.39700 6.78700
H 1.16800 0.03300 7.73300
N -0.18500 1.96100 -0.15200
C -0.70300 2.80000 0.77700
C -0.62000 4.15600 0.19300
C -0.18700 4.01500 -1.22500
C -0.21400 2.58300 -1.38000
C -0.88700 5.40600 0.97400
C 0.18100 5.01300 -2.27700
O 0.30300 4.69000 -3.50800
C 0.31000 6.41400 -1.83700
N -0.26500 -0.41300 -2.02900
C -0.27900 0.56900 -2.93700
C -0.19600 0.02400 -4.33200
C 0.12400 -1.53300 -4.18000
C 0.08600 -1.63200 -2.63500
C -1.45100 0.20500 -5.19700
C 1.37300 -2.07000 -4.92300
C 2.62600 -1.49000 -4.30600
N 0.15000 -2.14400 0.30300
C 0.17300 -3.13600 -0.68800
C 0.17300 -4.43800 0.00400
C 0.13300 -4.11100 1.35800
C 0.08300 -2.69500 1.50200
C 0.14900 -5.71500 -0.62300
C 0.09600 -4.62900 2.71600
O 0.20800 -5.74700 3.22100
C -0.25500 -3.42800 3.70100
C 0.71700 -3.48200 4.84800
O 1.93100 -3.25500 4.66900
O 0.03800 -3.55600 6.00300
C 0.94300 -3.58300 7.18300
H -1.85900 3.22000 2.49700
H -0.21800 2.45300 -3.47400
H 0.27600 -3.74700 -2.60500
H -1.55400 -0.94900 5.13200
H -1.58500 1.83100 4.66500
H -3.48400 -0.37700 3.96900
H -3.51100 1.02700 2.85800
H -3.85200 1.30100 4.54300
H 0.66900 1.09600 4.96600
H 1.13000 -0.63900 5.18900
H -0.84400 0.02600 7.12500
H 0.06200 1.47700 6.92100
H -1.34400 5.18600 1.93800
H -1.65100 5.96300 0.43200
H 0.00700 6.02000 1.08400
H -0.63500 6.74400 -1.40500
H 0.66500 6.97000 -2.70400
H 1.04800 6.46600 -1.03600
H 0.60800 0.50100 -4.89100
H -0.69200 -2.15600 -4.54700
H -1.26700 0.74000 -6.12900
H -2.20400 0.71400 -4.59600
H -1.96700 -0.72000 -5.45300
H 1.35600 -1.75900 -5.96700
H 1.45200 -3.15700 -4.90200
H 2.71400 -0.52200 -4.79800
H 3.48700 -2.12100 -4.52900
H 2.49500 -1.30300 -3.24000
H 0.86700 -6.33300 -0.08400
H 0.40400 -5.64200 -1.68000
H -0.89100 -5.99900 -0.46300
H -1.28300 -3.58100 4.02800
H 0.69800 -4.47800 7.75500
H 0.83300 -2.61900 7.68000
H 2.00000 -3.75400 6.97600
Mg 15.76018 1.42590 1.20340
C 17.96609 2.19867 3.92661
C 13.60069 0.14509 3.51223
C 14.00040 0.32808 -1.19773
C 18.50972 1.70278 -0.92006
N 15.88006 1.25229 3.40515
C 16.73934 1.63646 4.33703
C 16.22295 1.47878 5.79238
C 15.13445 0.32588 5.53773
C 14.81969 0.60682 4.06985
C 15.70818 -1.07736 5.64310
C 15.55418 2.79049 6.33474
C 15.30622 2.80902 7.84468
H 15.44955 4.07511 8.55809
N 13.86437 0.84035 1.16350
C 13.13626 0.36934 2.19756
C 11.80822 0.05889 1.64612
C 11.86206 0.22997 0.16877
C 13.28091 0.45759 -0.01869
C 10.62687 -0.27677 2.50936
C 10.81244 0.18225 -0.89997
O 11.11936 0.12229 -2.14297
C 9.41613 0.11351 -0.44492
N 16.22594 0.85851 -0.74172
C 15.26462 0.46824 -1.59699
C 15.79476 0.37503 -3.00789
C 17.25744 1.01994 -2.96074
C 17.35924 1.30587 -1.44638
C 15.87863 -1.03361 -3.59532
C 17.54779 2.17918 -3.95297
C 16.72469 3.39244 -3.58430
N 17.82047 2.04629 1.39932
C 18.80671 2.06073 0.38878
C 20.08001 2.45024 1.02864
C 19.74833 2.61432 2.38199
C 18.37026 2.32638 2.57565
C 21.33972 2.56085 0.37518
C 20.25296 2.95530 3.69263
O 21.32517 3.37166 4.12937
C 19.14942 2.57860 4.77277
C 18.99618 3.74724 5.70729
O 18.54818 4.83166 5.29505
O 19.19675 3.33034 6.97075
C 19.04458 4.45176 7.93568
H 12.95549 -0.48489 4.12520
H 13.41521 0.05864 -2.08002
H 19.39169 1.90659 -1.53101
H 16.96588 1.13817 6.50359
H 14.25049 0.47450 6.15245
H 16.78212 -1.06613 5.75563
H 15.42912 -1.57892 4.72570
H 15.21415 -1.62704 6.44940
H 14.51885 2.84023 5.97369
H 16.12415 3.65395 6.05152
H 15.85407 2.01215 8.36217
H 14.25487 2.57324 8.02661
H 10.93051 -0.48874 3.54196
H 10.22384 -1.22758 2.14413
H 9.84198 0.48113 2.46239
H 9.28139 -0.76966 0.17500
H 8.81009 0.17726 -1.35076
H 9.21328 0.98034 0.19389
H 15.17979 0.94830 -3.69074
H 18.03685 0.27967 -3.19385
H 15.31339 -1.14709 -4.53962
H 15.52265 -1.73499 -2.85243
H 16.88755 -1.39405 -3.78861
H 17.24719 1.89595 -4.96469
H 18.59492 2.45984 -3.99483
H 15.75730 3.18566 -4.05172
H 17.17339 4.29724 -3.98933
H 16.56318 3.44416 -2.50130
H 21.80113 3.46880 0.74017
H 21.22615 2.57884 -0.70674
H 21.82076 1.64246 0.72220
H 19.49110 1.68191 5.29120
H 19.97002 4.50011 8.51784
H 18.11061 4.24360 8.49075
H 18.99550 5.45655 7.53266

