%nproc=24
%mem=175gb
#p cam-b3lyp/Def2SVP td=(nstates=5)

TDDFT excited states in gaussian

0 1
Mg 13.14390 1.18775 1.00578
C 12.60510 -1.06877 3.74382
C 11.60814 3.58982 2.87824
C 13.19782 3.07155 -1.54683
C 13.57988 -1.60692 -1.03026
N 12.26363 1.14465 3.03445
C 12.17200 0.24792 4.00493
C 11.65720 0.81274 5.35605
C 10.85965 2.08870 4.79504
C 11.64259 2.31801 3.50388
C 9.41623 1.78366 4.43059
C 12.82741 1.24059 6.30976
C 12.41121 1.51039 7.75743
H 13.33882 1.15169 8.82671
N 12.95186 3.15756 0.85908
C 12.31667 3.97962 1.72049
C 12.44077 5.33103 1.15265
C 13.05812 5.21797 -0.19673
C 13.07449 3.77804 -0.35932
C 12.06717 6.57047 1.91267
C 13.54066 6.23754 -1.18356
O 13.82316 5.92258 -2.39345
C 13.58352 7.63145 -0.71811
N 13.14752 0.79584 -1.03597
C 13.22755 1.79548 -1.93165
C 13.49213 1.26393 -3.32012
C 13.81499 -0.29088 -3.13063
C 13.58359 -0.41372 -1.60854
C 12.35103 1.42786 -4.32382
C 15.15663 -0.80780 -3.71840
C 16.31785 -0.21363 -2.95425
N 13.28943 -0.94706 1.30487
C 13.44555 -1.93882 0.31183
C 13.37693 -3.24916 0.99058
C 13.16091 -2.92677 2.33888
C 13.07909 -1.51577 2.48673
C 13.46043 -4.52034 0.35557
C 12.97289 -3.45962 3.66907
O 13.02973 -4.58119 4.17164
C 12.47841 -2.28491 4.61878
C 13.29856 -2.32996 5.87888
O 14.51959 -2.09613 5.84699
O 12.47423 -2.42614 6.93794
C 13.24058 -2.46299 8.21198
H 10.94329 4.35126 3.28698
H 13.33135 3.67884 -2.44508
H 13.80462 -2.52305 -1.58060
H 10.98129 0.15873 5.89381
H 10.96233 2.94234 5.45995
H 9.19806 0.72820 4.49813
H 9.28967 2.13184 3.41383
H 8.73780 2.38559 5.04193
H 13.17410 2.24209 6.02418
H 13.61884 0.51680 6.29021
H 11.40673 1.12784 7.97566
H 12.32296 2.59048 7.89758
H 11.48827 6.33096 2.81318
H 11.36965 7.13352 1.28314
H 12.92898 7.20232 2.13784
H 12.58890 7.93763 -0.40275
H 14.03858 8.19779 -1.53300
H 14.22510 7.68464 0.16856
H 14.35276 1.75015 -3.76286
H 13.05923 -0.92602 -3.61566
H 12.64586 1.98578 -5.23259
H 11.52657 1.92062 -3.82584
H 11.89520 0.49837 -4.66068
H 15.26714 -0.48023 -4.75505
H 15.24309 -1.88922 -3.71142
H 16.44709 0.76596 -3.42412
H 17.20815 -0.82817 -3.07149
H 16.05220 -0.04322 -1.90447
H 14.10761 -5.13293 0.96908
H 13.84011 -4.43312 -0.66031
H 12.40874 -4.81830 0.37655
H 11.41772 -2.44652 4.81469
H 12.93500 -3.37011 8.74250
H 13.03883 -1.49605 8.71004
H 14.31284 -2.60652 8.14791

