%nproc=24
%mem=175gb
#p cam-b3lyp/Def2SVP td=(nstates=5)

TDDFT excited states in gaussian

0 1
Mg 10.51895 0.94072 0.79446
C 10.47260 2.03384 -2.62344
C 10.00908 -2.22543 -0.36749
C 10.10539 0.01097 3.79978
C 9.88285 4.24168 1.71353
N 10.28801 0.13506 -1.25245
C 10.34986 0.63639 -2.47687
C 10.35674 -0.42699 -3.60768
C 9.63944 -1.62543 -2.81516
C 10.02784 -1.24211 -1.38867
C 8.12384 -1.59535 -2.92196
C 11.81005 -0.81969 -4.05005
C 11.89211 -1.61729 -5.35346
H 13.02768 -1.38452 -6.24158
N 10.60440 -0.87018 1.60186
C 10.39246 -2.04912 0.98020
C 10.55272 -3.08354 2.01387
C 10.71401 -2.40959 3.33088
C 10.45437 -1.03389 2.95656
C 10.62252 -4.54873 1.69486
C 11.03464 -2.92057 4.70284
O 10.89047 -2.18825 5.74484
C 11.43307 -4.33241 4.80006
N 9.85218 1.92975 2.49727
C 9.81789 1.30804 3.68901
C 9.56954 2.28962 4.80937
C 9.68532 3.73928 4.14404
C 9.90175 3.32549 2.67185
C 8.22186 2.16188 5.51918
C 10.69195 4.73114 4.78869
C 12.10647 4.24189 4.57621
N 10.40916 2.84448 -0.22126
C 10.10413 4.09952 0.34963
C 10.03562 5.07602 -0.75680
C 10.28481 4.31096 -1.90618
C 10.47388 2.94991 -1.54382
C 9.72494 6.45910 -0.62762
C 10.42037 4.34341 -3.34467
O 10.44718 5.23236 -4.19484
C 10.42273 2.84893 -3.88588
C 11.56335 2.70814 -4.85628
O 12.74024 2.80963 -4.46737
O 11.08775 2.26368 -6.03383
C 12.18317 2.09759 -7.02595
H 9.62477 -3.21685 -0.60890
H 10.05897 -0.23643 4.86285
H 9.78625 5.30826 1.92742
H 9.77773 -0.16180 -4.48415
H 10.06861 -2.58781 -3.08165
H 7.77248 -0.70218 -3.41686
H 7.75645 -1.63371 -1.90481
H 7.76202 -2.50614 -3.40764
H 12.20894 -1.56400 -3.34888
H 12.43546 0.04914 -4.11809
H 10.95124 -1.58531 -5.91620
H 12.02076 -2.67386 -5.10622
H 10.30819 -4.75129 0.66357
H 9.86680 -5.04669 2.31194
H 11.60046 -4.98177 1.91574
H 10.63881 -4.95997 4.40284
H 11.70776 -4.48724 5.84526
H 12.30973 -4.49321 4.16270
H 10.32438 2.19552 5.58039
H 8.72927 4.28193 4.18064
H 8.31640 2.00348 6.61008
H 7.67159 1.34955 5.06327
H 7.54603 3.00430 5.38212
H 10.53859 4.77729 5.86966
H 10.60526 5.74320 4.40762
H 12.24226 3.51986 5.38697
H 12.81304 5.06531 4.65853
H 12.19605 3.69573 3.62998
H 10.42071 6.99483 -1.25960
H 9.79338 6.78696 0.40756
H 8.69415 6.46231 -0.99192
H 9.45704 2.67090 -4.36057
H 11.91083 2.69020 -7.90477
H 12.29382 1.00623 -7.16890
H 13.15102 2.51799 -6.77902

