%nproc=24
%mem=175gb
#p cam-b3lyp/Def2SVP td=(nstates=5)

TDDFT excited states in gaussian

0 1
Mg 15.77438 1.41385 1.19368
C 15.72803 2.50698 -2.22422
C 15.26451 -1.75230 0.03173
C 15.36082 0.48411 4.19900
C 15.13827 4.71482 2.11275
N 15.54343 0.60819 -0.85323
C 15.60528 1.10952 -2.07765
C 15.61217 0.04614 -3.20846
C 14.89486 -1.15230 -2.41594
C 15.28327 -0.76897 -0.98945
C 13.37927 -1.12222 -2.52274
C 17.06548 -0.34656 -3.65083
C 17.14754 -1.14415 -4.95423
H 18.28311 -0.91138 -5.84236
N 15.85983 -0.39705 2.00108
C 15.64788 -1.57599 1.37942
C 15.80815 -2.61040 2.41309
C 15.96944 -1.93646 3.73010
C 15.70979 -0.56076 3.35578
C 15.87795 -4.07559 2.09408
C 16.29007 -2.44744 5.10206
O 16.14590 -1.71512 6.14406
C 16.68850 -3.85928 5.19928
N 15.10761 2.40288 2.89649
C 15.07332 1.78118 4.08823
C 14.82496 2.76275 5.20859
C 14.94074 4.21241 4.54326
C 15.15718 3.79862 3.07107
C 13.47728 2.63501 5.91841
C 15.94737 5.20427 5.18791
C 17.36190 4.71502 4.97543
N 15.66459 3.31761 0.17796
C 15.35956 4.57265 0.74885
C 15.29105 5.54915 -0.35757
C 15.54023 4.78409 -1.50695
C 15.72930 3.42304 -1.14460
C 14.98037 6.93223 -0.22840
C 15.67580 4.81655 -2.94545
O 15.70260 5.70549 -3.79562
C 15.67815 3.32206 -3.48666
C 16.81878 3.18127 -4.45706
O 17.99566 3.28276 -4.06815
O 16.34318 2.73681 -5.63461
C 17.43859 2.57072 -6.62673
H 14.88020 -2.74372 -0.20968
H 15.31439 0.23671 5.26207
H 15.04168 5.78140 2.32664
H 15.03315 0.31133 -4.08492
H 15.32403 -2.11467 -2.68243
H 13.02791 -0.22904 -3.01764
H 13.01187 -1.16058 -1.50559
H 13.01745 -2.03301 -3.00842
H 17.46437 -1.09087 -2.94966
H 17.69089 0.52227 -3.71887
H 16.20666 -1.11218 -5.51698
H 17.27618 -2.20072 -4.70700
H 15.56361 -4.27815 1.06279
H 15.12223 -4.57355 2.71116
H 16.85589 -4.50864 2.31496
H 15.89423 -4.48683 4.80206
H 16.96318 -4.01410 6.24448
H 17.56516 -4.02008 4.56192
H 15.57980 2.66865 5.97961
H 13.98470 4.75506 4.57986
H 13.57182 2.47662 7.00930
H 12.92702 1.82268 5.46249
H 12.80146 3.47743 5.78134
H 15.79401 5.25042 6.26888
H 15.86068 6.21633 4.80684
H 17.49769 3.99300 5.78619
H 18.06847 5.53844 5.05775
H 17.45147 4.16887 4.02920
H 15.67613 7.46797 -0.86038
H 15.04880 7.26010 0.80678
H 13.94958 6.93544 -0.59270
H 14.71247 3.14403 -3.96135
H 17.16626 3.16333 -7.50555
H 17.54924 1.47936 -6.76967
H 18.40644 2.99113 -6.37979

