%nproc=24
%mem=175gb
#p cam-b3lyp/Def2SVP td=(nstates=5)

TDDFT excited states in gaussian

0 1
Mg 10.51755 0.94606 0.80666
C 10.56969 -2.56478 1.54851
C 9.34896 1.44545 3.97203
C 10.03294 3.98694 0.04140
C 10.58196 0.09176 -2.57147
N 10.05984 -0.45766 2.45358
C 10.17715 -1.76360 2.64096
C 9.93326 -2.22822 4.10185
C 9.02046 -1.00240 4.59483
C 9.52685 0.07822 3.64168
C 7.53821 -1.21286 4.33407
C 11.26331 -2.32291 4.92890
C 11.13978 -3.06233 6.26298
H 12.26720 -3.87171 6.71717
N 10.26995 2.53819 1.96526
C 9.80657 2.55818 3.23261
C 9.79432 3.97335 3.63423
C 10.13213 4.80146 2.44476
C 10.13785 3.78675 1.41014
C 9.56066 4.41551 5.04961
C 10.39269 6.26646 2.26566
O 10.43329 6.80604 1.10375
C 10.50605 7.06708 3.49352
N 10.12033 1.89994 -0.99741
C 10.00498 3.23805 -1.06119
C 9.99575 3.71712 -2.49325
C 10.37370 2.43856 -3.37644
C 10.45208 1.37409 -2.26013
C 8.67519 4.30568 -2.98934
C 11.57911 2.58380 -4.34523
C 12.86004 2.73365 -3.55646
N 10.75246 -0.87432 -0.33312
C 10.72280 -1.01070 -1.73833
C 10.81088 -2.45470 -2.03755
C 10.86289 -3.06462 -0.77510
C 10.79054 -2.07227 0.23954
C 10.78568 -3.03833 -3.33558
C 10.95184 -4.32303 -0.06999
O 11.12485 -5.49484 -0.40264
C 10.63853 -4.06451 1.46669
C 11.69386 -4.76284 2.27979
O 12.88033 -4.39408 2.22578
O 11.09863 -5.60292 3.14600
C 12.10390 -6.31087 3.98269
H 8.76727 1.69311 4.86040
H 9.97552 5.02960 -0.27959
H 10.70657 -0.24916 -3.60148
H 9.38814 -3.15962 4.19730
H 9.24044 -0.73553 5.62524
H 7.35409 -2.10324 3.75143
H 7.20630 -0.33395 3.79704
H 6.98602 -1.21558 5.27821
H 11.53076 -1.32246 5.29265
H 12.04599 -2.76367 4.34258
H 10.20490 -3.63148 6.33377
H 11.06467 -2.32284 7.06394
H 9.17651 3.59561 5.66896
H 8.74316 5.14422 5.02614
H 10.44026 4.88541 5.49476
H 9.58962 6.97378 4.07137
H 10.78090 8.07081 3.16358
H 11.31052 6.65042 4.10984
H 10.74337 4.48520 -2.64892
H 9.54629 2.14071 -4.03714
H 8.77448 5.33869 -3.37290
H 7.95901 4.26803 -2.17927
H 8.17570 3.72944 -3.76628
H 11.47585 3.49153 -4.94483
H 11.68180 1.75242 -5.03462
H 12.87804 3.80074 -3.31545
H 13.71846 2.45139 -4.16267
H 12.80628 2.18286 -2.61022
H 11.55143 -3.80251 -3.34826
H 10.95398 -2.29287 -4.11001
H 9.76395 -3.42686 -3.35492
H 9.64073 -4.45623 1.66800
H 11.92409 -7.38330 3.85922
H 11.99062 -5.89516 5.00157
H 13.14398 -6.23547 3.68772

