%nproc=24
%mem=175gb
#p cam-b3lyp/Def2SVP td=(nstates=5)

TDDFT excited states in gaussian

0 1
Mg 0.00000 0.00000 0.00000
C -0.21700 -2.21800 2.80100
C -1.25500 2.44200 2.02600
C -0.24500 1.85000 -2.56400
C 0.14600 -2.82400 -2.03700
N -0.61700 -0.00900 2.12600
C -0.59400 -0.90800 3.10500
C -0.93600 -0.30900 4.50200
C -1.77300 0.96400 4.03200
C -1.15500 1.16800 2.66000
C -3.26300 0.68500 3.86300
C 0.34500 0.11000 5.29900
C 0.12400 0.39700 6.78700
H 1.16800 0.03300 7.73300
N -0.18500 1.96100 -0.15200
C -0.70300 2.80000 0.77700
C -0.62000 4.15600 0.19300
C -0.18700 4.01500 -1.22500
C -0.21400 2.58300 -1.38000
C -0.88700 5.40600 0.97400
C 0.18100 5.01300 -2.27700
O 0.30300 4.69000 -3.50800
C 0.31000 6.41400 -1.83700
N -0.26500 -0.41300 -2.02900
C -0.27900 0.56900 -2.93700
C -0.19600 0.02400 -4.33200
C 0.12400 -1.53300 -4.18000
C 0.08600 -1.63200 -2.63500
C -1.45100 0.20500 -5.19700
C 1.37300 -2.07000 -4.92300
C 2.62600 -1.49000 -4.30600
N 0.15000 -2.14400 0.30300
C 0.17300 -3.13600 -0.68800
C 0.17300 -4.43800 0.00400
C 0.13300 -4.11100 1.35800
C 0.08300 -2.69500 1.50200
C 0.14900 -5.71500 -0.62300
C 0.09600 -4.62900 2.71600
O 0.20800 -5.74700 3.22100
C -0.25500 -3.42800 3.70100
C 0.71700 -3.48200 4.84800
O 1.93100 -3.25500 4.66900
O 0.03800 -3.55600 6.00300
C 0.94300 -3.58300 7.18300
H -1.85900 3.22000 2.49700
H -0.21800 2.45300 -3.47400
H 0.27600 -3.74700 -2.60500
H -1.55400 -0.94900 5.13200
H -1.58500 1.83100 4.66500
H -3.48400 -0.37700 3.96900
H -3.51100 1.02700 2.85800
H -3.85200 1.30100 4.54300
H 0.66900 1.09600 4.96600
H 1.13000 -0.63900 5.18900
H -0.84400 0.02600 7.12500
H 0.06200 1.47700 6.92100
H -1.34400 5.18600 1.93800
H -1.65100 5.96300 0.43200
H 0.00700 6.02000 1.08400
H -0.63500 6.74400 -1.40500
H 0.66500 6.97000 -2.70400
H 1.04800 6.46600 -1.03600
H 0.60800 0.50100 -4.89100
H -0.69200 -2.15600 -4.54700
H -1.26700 0.74000 -6.12900
H -2.20400 0.71400 -4.59600
H -1.96700 -0.72000 -5.45300
H 1.35600 -1.75900 -5.96700
H 1.45200 -3.15700 -4.90200
H 2.71400 -0.52200 -4.79800
H 3.48700 -2.12100 -4.52900
H 2.49500 -1.30300 -3.24000
H 0.86700 -6.33300 -0.08400
H 0.40400 -5.64200 -1.68000
H -0.89100 -5.99900 -0.46300
H -1.28300 -3.58100 4.02800
H 0.69800 -4.47800 7.75500
H 0.83300 -2.61900 7.68000
H 2.00000 -3.75400 6.97600
Mg 7.89124 0.70478 0.59409
C 7.79449 2.21823 -2.65847
C 7.39555 -2.29532 -0.95133
C 7.52177 -0.59946 3.46287
C 7.23699 3.85737 1.92781
N 7.64304 0.16041 -1.53530
C 7.68585 0.81224 -2.68753
C 7.68865 -0.10047 -3.94312
C 6.99146 -1.39630 -3.29999
C 7.39345 -1.19131 -1.84086
C 5.47450 -1.36860 -3.38591
C 9.14000 -0.41952 -4.44692
C 9.21356 -1.04611 -5.84109
H 10.33636 -0.69193 -6.70501
N 8.00231 -1.19226 1.16635
C 7.79339 -2.28584 0.40365
C 7.97510 -3.44025 1.29723
C 8.14612 -2.93554 2.68674
C 7.86989 -1.52644 2.49123
C 8.05404 -4.85295 0.79574
C 8.48758 -3.61156 3.98003
O 8.34938 -3.01752 5.10734
C 8.89961 -5.02026 3.89461
N 7.23610 1.46508 2.41483
C 7.22152 0.69822 3.51920
C 6.97787 1.52862 4.75673
C 7.07290 3.05151 4.27781
C 7.27542 2.82825 2.76304
C 5.63993 1.29886 5.45924
C 8.07834 3.96478 5.03127
C 9.49450 3.52065 4.74380
N 7.75253 2.71987 -0.17287
C 7.44325 3.89001 0.55458
C 7.35293 4.99706 -0.41944
C 7.59515 4.38510 -1.65853
C 7.80054 2.99132 -1.47229
C 7.03161 6.34968 -0.11401
C 7.71326 4.59947 -3.08288
O 7.72207 5.58843 -3.81473
C 7.72237 3.18495 -3.80776
C 8.85254 3.17894 -4.80033
O 10.03304 3.24282 -4.41438
O 8.36688 2.88113 -6.01927
C 9.45182 2.85228 -7.03608
H 7.01716 -3.25243 -1.31139
H 7.49021 -0.97896 4.48681
H 7.13354 4.88757 2.27519
H 7.09691 0.26680 -4.77301
H 7.42591 -2.31310 -3.68999
H 5.10938 -0.42396 -3.76074
H 5.11961 -1.53825 -2.37779
H 5.11497 -2.21480 -3.97838
H 9.55378 -1.24191 -3.84925
H 9.75685 0.45734 -4.41183
H 8.26580 -0.95333 -6.38523
H 9.35447 -2.12400 -5.73011
H 7.72923 -4.92751 -0.24941
H 7.31015 -5.43223 1.35334
H 9.03833 -5.30025 0.94990
H 8.10624 -5.60104 3.43015
H 9.18809 -5.30238 4.90904
H 9.76999 -5.09068 3.23274
H 7.74265 1.34612 5.50165
H 6.11260 3.57542 4.39261
H 5.74887 1.00561 6.52047
H 5.09147 0.54466 4.91069
H 4.95511 2.14485 5.43646
H 7.93747 3.87314 6.11104
H 7.97817 5.01576 4.78148
H 9.64632 2.70389 5.45580
H 10.19470 4.33441 4.92145
H 9.57761 3.09869 3.73549
H 7.71503 6.96770 -0.68101
H 7.10947 6.54554 0.95339
H 5.99655 6.38807 -0.46395
H 6.75270 3.05807 -4.29070
H 9.16380 3.54781 -7.83042
H 9.57040 1.78873 -7.31634
H 10.41879 3.24824 -6.74861

