%nproc=24
%mem=175gb
#p cam-b3lyp/Def2SVP td=(nstates=5)

TDDFT excited states in gaussian

0 1
Mg 0.00000 0.00000 0.00000
C -0.21700 -2.21800 2.80100
C -1.25500 2.44200 2.02600
C -0.24500 1.85000 -2.56400
C 0.14600 -2.82400 -2.03700
N -0.61700 -0.00900 2.12600
C -0.59400 -0.90800 3.10500
C -0.93600 -0.30900 4.50200
C -1.77300 0.96400 4.03200
C -1.15500 1.16800 2.66000
C -3.26300 0.68500 3.86300
C 0.34500 0.11000 5.29900
C 0.12400 0.39700 6.78700
H 1.16800 0.03300 7.73300
N -0.18500 1.96100 -0.15200
C -0.70300 2.80000 0.77700
C -0.62000 4.15600 0.19300
C -0.18700 4.01500 -1.22500
C -0.21400 2.58300 -1.38000
C -0.88700 5.40600 0.97400
C 0.18100 5.01300 -2.27700
O 0.30300 4.69000 -3.50800
C 0.31000 6.41400 -1.83700
N -0.26500 -0.41300 -2.02900
C -0.27900 0.56900 -2.93700
C -0.19600 0.02400 -4.33200
C 0.12400 -1.53300 -4.18000
C 0.08600 -1.63200 -2.63500
C -1.45100 0.20500 -5.19700
C 1.37300 -2.07000 -4.92300
C 2.62600 -1.49000 -4.30600
N 0.15000 -2.14400 0.30300
C 0.17300 -3.13600 -0.68800
C 0.17300 -4.43800 0.00400
C 0.13300 -4.11100 1.35800
C 0.08300 -2.69500 1.50200
C 0.14900 -5.71500 -0.62300
C 0.09600 -4.62900 2.71600
O 0.20800 -5.74700 3.22100
C -0.25500 -3.42800 3.70100
C 0.71700 -3.48200 4.84800
O 1.93100 -3.25500 4.66900
O 0.03800 -3.55600 6.00300
C 0.94300 -3.58300 7.18300
H -1.85900 3.22000 2.49700
H -0.21800 2.45300 -3.47400
H 0.27600 -3.74700 -2.60500
H -1.55400 -0.94900 5.13200
H -1.58500 1.83100 4.66500
H -3.48400 -0.37700 3.96900
H -3.51100 1.02700 2.85800
H -3.85200 1.30100 4.54300
H 0.66900 1.09600 4.96600
H 1.13000 -0.63900 5.18900
H -0.84400 0.02600 7.12500
H 0.06200 1.47700 6.92100
H -1.34400 5.18600 1.93800
H -1.65100 5.96300 0.43200
H 0.00700 6.02000 1.08400
H -0.63500 6.74400 -1.40500
H 0.66500 6.97000 -2.70400
H 1.04800 6.46600 -1.03600
H 0.60800 0.50100 -4.89100
H -0.69200 -2.15600 -4.54700
H -1.26700 0.74000 -6.12900
H -2.20400 0.71400 -4.59600
H -1.96700 -0.72000 -5.45300
H 1.35600 -1.75900 -5.96700
H 1.45200 -3.15700 -4.90200
H 2.71400 -0.52200 -4.79800
H 3.48700 -2.12100 -4.52900
H 2.49500 -1.30300 -3.24000
H 0.86700 -6.33300 -0.08400
H 0.40400 -5.64200 -1.68000
H -0.89100 -5.99900 -0.46300
H -1.28300 -3.58100 4.02800
H 0.69800 -4.47800 7.75500
H 0.83300 -2.61900 7.68000
H 2.00000 -3.75400 6.97600
Mg 13.13703 1.18520 0.98784
C 15.12594 -1.34460 -0.60069
C 15.12198 3.49715 -0.54495
C 11.69803 3.42188 2.71814
C 12.07866 -1.25630 3.23831
N 14.86786 0.97940 -0.37383
C 15.49552 -0.03081 -0.95679
C 16.52570 0.39040 -2.03887
C 16.83185 1.87680 -1.51376
C 15.51469 2.15769 -0.79343
C 17.95624 1.93484 -0.49311
C 15.90576 0.40669 -3.48019
C 16.92475 0.50709 -4.61744
H 16.65125 -0.20610 -5.86204
N 13.03742 3.14926 0.72114
C 13.91664 3.92541 0.05344
C 13.40413 5.29998 0.16324
C 12.23928 5.29370 1.08940
C 12.29378 3.92843 1.57226
C 13.96421 6.44320 -0.63223
C 11.24889 6.34639 1.48585
O 10.46356 6.18932 2.48657
C 11.28968 7.60432 0.72596
N 12.21234 1.15020 2.84958
C 11.61966 2.24945 3.34788
C 10.78786 1.91708 4.56362
C 10.75104 0.31987 4.63542
C 11.68274 -0.00835 3.44816
C 11.29901 2.47433 5.89200
C 9.35063 -0.35037 4.68329
C 8.63254 -0.13986 3.36973
N 13.36580 -0.95435 1.18291
C 12.86165 -1.77550 2.21520
C 13.37359 -3.14031 1.97513
C 14.16504 -3.01278 0.82368
C 14.16389 -1.65973 0.38921
C 13.12983 -4.27673 2.79686
C 15.00978 -3.71304 -0.11693
O 15.30976 -4.89132 -0.30504
C 15.77162 -2.63985 -1.00815
C 15.65047 -3.06088 -2.44710
O 14.54163 -3.07605 -3.00999
O 16.88121 -3.16587 -2.98060
C 16.81294 -3.57050 -4.41009
H 15.82024 4.29703 -0.79295
H 11.09686 4.13221 3.29043
H 11.71512 -2.09287 3.83886
H 17.43729 -0.19496 -2.05050
H 16.96865 2.56779 -2.34152
H 18.28582 0.94906 -0.20027
H 17.55341 2.46756 0.35835
H 18.77787 2.54944 -0.87195
H 15.36635 1.35122 -3.62730
H 15.27595 -0.44794 -3.63373
H 17.94651 0.30372 -4.27452
H 16.95902 1.54343 -4.96217
H 14.91968 6.17715 -1.10096
H 14.22240 7.23312 0.08137
H 13.25104 6.84120 -1.35724
H 12.27898 8.04714 0.81341
H 10.45006 8.19628 1.09542
H 11.13934 7.37697 -0.33533
H 9.77603 2.28729 4.45290
H 11.24927 -0.05892 5.53992
H 10.55649 3.10628 6.41485
H 12.20630 3.03212 5.70165
H 11.63382 1.72611 6.60843
H 8.73273 0.11801 5.45334
H 9.38731 -1.41241 4.90170
H 8.19919 0.85841 3.48261
H 7.85906 -0.89255 3.23108
H 9.34232 -0.09868 2.53537
H 12.91322 -5.10160 2.13115
H 12.31005 -4.09802 3.48953
H 14.09158 -4.35574 3.31073
H 16.80984 -2.61495 -0.67491
H 17.42209 -4.47350 -4.51597
H 17.12659 -2.68072 -4.98774
H 15.85745 -3.91435 -4.78857

