%nproc=24
%mem=175gb
#p cam-b3lyp/Def2SVP td=(nstates=5)

TDDFT excited states in gaussian

0 1
Mg 0.00000 0.00000 0.00000
C -0.21700 -2.21800 2.80100
C -1.25500 2.44200 2.02600
C -0.24500 1.85000 -2.56400
C 0.14600 -2.82400 -2.03700
N -0.61700 -0.00900 2.12600
C -0.59400 -0.90800 3.10500
C -0.93600 -0.30900 4.50200
C -1.77300 0.96400 4.03200
C -1.15500 1.16800 2.66000
C -3.26300 0.68500 3.86300
C 0.34500 0.11000 5.29900
C 0.12400 0.39700 6.78700
H 1.16800 0.03300 7.73300
N -0.18500 1.96100 -0.15200
C -0.70300 2.80000 0.77700
C -0.62000 4.15600 0.19300
C -0.18700 4.01500 -1.22500
C -0.21400 2.58300 -1.38000
C -0.88700 5.40600 0.97400
C 0.18100 5.01300 -2.27700
O 0.30300 4.69000 -3.50800
C 0.31000 6.41400 -1.83700
N -0.26500 -0.41300 -2.02900
C -0.27900 0.56900 -2.93700
C -0.19600 0.02400 -4.33200
C 0.12400 -1.53300 -4.18000
C 0.08600 -1.63200 -2.63500
C -1.45100 0.20500 -5.19700
C 1.37300 -2.07000 -4.92300
C 2.62600 -1.49000 -4.30600
N 0.15000 -2.14400 0.30300
C 0.17300 -3.13600 -0.68800
C 0.17300 -4.43800 0.00400
C 0.13300 -4.11100 1.35800
C 0.08300 -2.69500 1.50200
C 0.14900 -5.71500 -0.62300
C 0.09600 -4.62900 2.71600
O 0.20800 -5.74700 3.22100
C -0.25500 -3.42800 3.70100
C 0.71700 -3.48200 4.84800
O 1.93100 -3.25500 4.66900
O 0.03800 -3.55600 6.00300
C 0.94300 -3.58300 7.18300
H -1.85900 3.22000 2.49700
H -0.21800 2.45300 -3.47400
H 0.27600 -3.74700 -2.60500
H -1.55400 -0.94900 5.13200
H -1.58500 1.83100 4.66500
H -3.48400 -0.37700 3.96900
H -3.51100 1.02700 2.85800
H -3.85200 1.30100 4.54300
H 0.66900 1.09600 4.96600
H 1.13000 -0.63900 5.18900
H -0.84400 0.02600 7.12500
H 0.06200 1.47700 6.92100
H -1.34400 5.18600 1.93800
H -1.65100 5.96300 0.43200
H 0.00700 6.02000 1.08400
H -0.63500 6.74400 -1.40500
H 0.66500 6.97000 -2.70400
H 1.04800 6.46600 -1.03600
H 0.60800 0.50100 -4.89100
H -0.69200 -2.15600 -4.54700
H -1.26700 0.74000 -6.12900
H -2.20400 0.71400 -4.59600
H -1.96700 -0.72000 -5.45300
H 1.35600 -1.75900 -5.96700
H 1.45200 -3.15700 -4.90200
H 2.71400 -0.52200 -4.79800
H 3.48700 -2.12100 -4.52900
H 2.49500 -1.30300 -3.24000
H 0.86700 -6.33300 -0.08400
H 0.40400 -5.64200 -1.68000
H -0.89100 -5.99900 -0.46300
H -1.28300 -3.58100 4.02800
H 0.69800 -4.47800 7.75500
H 0.83300 -2.61900 7.68000
H 2.00000 -3.75400 6.97600
Mg 7.87514 0.71194 0.59225
C 8.09260 -2.04046 -1.70036
C 8.38771 2.77823 -2.07277
C 8.13822 3.12255 2.63851
C 8.52029 -1.55548 3.15901
N 8.18566 0.30271 -1.55911
C 8.18690 -0.77877 -2.32380
C 8.21454 -0.48843 -3.84843
C 8.87667 0.97388 -3.80279
C 8.43030 1.40082 -2.40595
C 10.39583 0.94781 -3.83160
C 6.77675 -0.44863 -4.47547
C 6.74120 -0.47777 -6.00506
H 5.65061 -1.19255 -6.66245
N 7.72526 2.66880 0.29760
C 7.94671 3.33770 -0.85340
C 7.72394 4.75821 -0.54246
C 7.51388 4.88984 0.92494
C 7.81147 3.53868 1.35608
C 7.64587 5.82026 -1.60047
C 7.12379 6.04429 1.79746
O 7.23216 5.99066 3.07347
C 6.69952 7.27220 1.10919
N 8.47968 0.81557 2.57874
C 8.45052 1.98002 3.25040
C 8.66328 1.76208 4.72946
C 8.60015 0.17853 4.94385
C 8.44395 -0.26978 3.47415
C 9.97542 2.30061 5.29925
C 7.58098 -0.34993 5.99012
C 6.17006 -0.10402 5.50616
N 8.06018 -1.43399 0.76190
C 8.35858 -2.17500 1.92636
C 8.49209 -3.58910 1.52024
C 8.28316 -3.56934 0.13300
C 8.05684 -2.23431 -0.29826
C 8.81805 -4.67467 2.38129
C 8.21315 -4.37291 -1.06620
O 8.23853 -5.57935 -1.30616
C 8.21202 -3.40276 -2.32525
C 7.11429 -3.84680 -3.25279
O 5.92277 -3.76782 -2.90543
O 7.63558 -4.08548 -4.47003
C 6.58359 -4.51813 -5.42812
H 8.76709 3.49927 -2.79738
H 8.13279 3.90281 3.40313
H 8.62368 -2.33671 3.91510
H 8.83655 -1.16032 -4.42760
H 8.44508 1.62662 -4.55712
H 10.78298 -0.05763 -3.75857
H 10.71632 1.53915 -2.98387
H 10.76501 1.46906 -4.71949
H 6.33512 0.54007 -4.29608
H 6.16860 -1.24116 -4.08473
H 7.70689 -0.77130 -6.43429
H 6.58515 0.54102 -6.36802
H 8.00323 5.44996 -2.56927
H 8.36517 6.59921 -1.32531
H 6.65236 6.26737 -1.67596
H 7.50106 7.61815 0.46088
H 6.37559 7.95283 1.89894
H 5.85011 7.03343 0.45949
H 7.87306 2.22660 5.30641
H 9.56188 -0.22382 5.29461
H 9.82932 3.01547 6.13094
H 10.53303 2.76181 4.49495
H 10.66974 1.54190 5.65631
H 7.68611 0.19635 6.93069
H 7.70047 -1.40450 6.21510
H 5.98664 0.93446 5.79772
H 5.47336 -0.78068 5.99684
H 6.11479 -0.15401 4.41250
H 8.15990 -5.49123 2.11564
H 8.70808 -4.39879 3.42799
H 9.86415 -4.83421 2.10656
H 9.19526 -3.47105 -2.79232
H 6.90446 -5.47886 -5.84253
H 6.46257 -3.67850 -6.13814
H 5.61222 -4.77642 -5.02292

