%nproc=24
%mem=175gb
#p cam-b3lyp/Def2SVP td=(nstates=5)

TDDFT excited states in gaussian

0 1
Mg 7.88666 0.70343 0.60662
C 5.19407 0.97545 2.96353
C 9.93231 1.97092 3.02392
C 10.18035 0.89966 -1.57693
C 5.48253 0.55472 -1.91206
N 7.49644 1.35061 2.68536
C 6.44656 1.35025 3.49289
C 6.77139 1.69850 4.97031
C 8.12484 2.52865 4.72971
C 8.57204 1.89153 3.41565
C 7.88717 4.00966 4.48590
C 7.02904 0.42019 5.84298
C 7.04663 0.66548 7.35337
H 6.50962 -0.36923 8.23285
N 9.85249 0.87168 0.82058
C 10.51475 1.38953 1.87628
C 11.94350 1.30333 1.53658
C 12.06343 0.84404 0.12612
C 10.67272 0.87461 -0.28020
C 13.03430 1.56443 2.53428
C 13.23703 0.45546 -0.72113
O 13.13421 0.31714 -1.99122
C 14.53045 0.33289 -0.03298
N 7.85076 0.93727 -1.45890
C 8.98920 0.93870 -2.17437
C 8.70362 0.84257 -3.65409
C 7.13927 0.53132 -3.77041
C 6.75724 0.59244 -2.27518
C 9.03753 2.08585 -4.47819
C 6.73051 -0.72518 -4.58698
C 7.18454 -1.97653 -3.87048
N 5.73215 0.56753 0.51901
C 4.92538 0.54378 -0.63972
C 3.51805 0.56157 -0.19080
C 3.60445 0.61812 1.20842
C 4.96920 0.65482 1.60288
C 2.37461 0.57524 -1.03843
C 2.85139 0.66585 2.44103
O 1.66022 0.57508 2.73533
C 3.84590 1.02698 3.62716
C 3.58520 0.07136 4.75912
O 3.82074 -1.14273 4.62828
O 3.30898 0.77307 5.87343
C 3.05397 -0.13084 7.02657
H 10.61251 2.57035 3.62965
H 10.93268 0.85601 -2.36786
H 4.67432 0.41151 -2.63245
H 6.03499 2.32246 5.46241
H 8.85177 2.33493 5.51419
H 6.83582 4.23972 4.39711
H 8.40462 4.24287 3.56454
H 8.37548 4.60296 5.26429
H 8.06459 0.08804 5.69451
H 6.31914 -0.34952 5.61014
H 6.63255 1.64642 7.61651
H 8.08669 0.71598 7.68464
H 12.64402 2.04300 3.44096
H 13.69715 2.31704 2.09373
H 13.61797 0.67040 2.76388
H 14.77823 1.27946 0.44143
H 15.22806 -0.03875 -0.78604
H 14.43062 -0.40527 0.77061
H 9.25837 0.02774 -4.10288
H 6.59691 1.34928 -4.26702
H 9.74300 1.88411 -5.30626
H 9.43777 2.83914 -3.81268
H 8.17971 2.59502 -4.91418
H 7.23101 -0.72485 -5.55840
H 5.66390 -0.79043 -4.77428
H 8.23018 -2.07148 -4.17823
H 6.59901 -2.83564 -4.19162
H 7.17243 -1.83408 -2.78365
H 1.66571 -0.12457 -0.61625
H 2.63469 0.31059 -2.06121
H 2.07771 1.62359 -0.94854
H 3.65333 2.06191 3.91252
H 2.06937 0.13104 7.42616
H 3.92120 -0.00560 7.70182
H 2.92331 -1.18603 6.81694

