%nproc=24
%mem=175gb
#p cam-b3lyp/Def2SVP td=(nstates=5)

TDDFT excited states in gaussian

0 1
Mg 0.00000 0.00000 0.00000
C -0.21700 -2.21800 2.80100
C -1.25500 2.44200 2.02600
C -0.24500 1.85000 -2.56400
C 0.14600 -2.82400 -2.03700
N -0.61700 -0.00900 2.12600
C -0.59400 -0.90800 3.10500
C -0.93600 -0.30900 4.50200
C -1.77300 0.96400 4.03200
C -1.15500 1.16800 2.66000
C -3.26300 0.68500 3.86300
C 0.34500 0.11000 5.29900
C 0.12400 0.39700 6.78700
H 1.16800 0.03300 7.73300
N -0.18500 1.96100 -0.15200
C -0.70300 2.80000 0.77700
C -0.62000 4.15600 0.19300
C -0.18700 4.01500 -1.22500
C -0.21400 2.58300 -1.38000
C -0.88700 5.40600 0.97400
C 0.18100 5.01300 -2.27700
O 0.30300 4.69000 -3.50800
C 0.31000 6.41400 -1.83700
N -0.26500 -0.41300 -2.02900
C -0.27900 0.56900 -2.93700
C -0.19600 0.02400 -4.33200
C 0.12400 -1.53300 -4.18000
C 0.08600 -1.63200 -2.63500
C -1.45100 0.20500 -5.19700
C 1.37300 -2.07000 -4.92300
C 2.62600 -1.49000 -4.30600
N 0.15000 -2.14400 0.30300
C 0.17300 -3.13600 -0.68800
C 0.17300 -4.43800 0.00400
C 0.13300 -4.11100 1.35800
C 0.08300 -2.69500 1.50200
C 0.14900 -5.71500 -0.62300
C 0.09600 -4.62900 2.71600
O 0.20800 -5.74700 3.22100
C -0.25500 -3.42800 3.70100
C 0.71700 -3.48200 4.84800
O 1.93100 -3.25500 4.66900
O 0.03800 -3.55600 6.00300
C 0.94300 -3.58300 7.18300
H -1.85900 3.22000 2.49700
H -0.21800 2.45300 -3.47400
H 0.27600 -3.74700 -2.60500
H -1.55400 -0.94900 5.13200
H -1.58500 1.83100 4.66500
H -3.48400 -0.37700 3.96900
H -3.51100 1.02700 2.85800
H -3.85200 1.30100 4.54300
H 0.66900 1.09600 4.96600
H 1.13000 -0.63900 5.18900
H -0.84400 0.02600 7.12500
H 0.06200 1.47700 6.92100
H -1.34400 5.18600 1.93800
H -1.65100 5.96300 0.43200
H 0.00700 6.02000 1.08400
H -0.63500 6.74400 -1.40500
H 0.66500 6.97000 -2.70400
H 1.04800 6.46600 -1.03600
H 0.60800 0.50100 -4.89100
H -0.69200 -2.15600 -4.54700
H -1.26700 0.74000 -6.12900
H -2.20400 0.71400 -4.59600
H -1.96700 -0.72000 -5.45300
H 1.35600 -1.75900 -5.96700
H 1.45200 -3.15700 -4.90200
H 2.71400 -0.52200 -4.79800
H 3.48700 -2.12100 -4.52900
H 2.49500 -1.30300 -3.24000
H 0.86700 -6.33300 -0.08400
H 0.40400 -5.64200 -1.68000
H -0.89100 -5.99900 -0.46300
H -1.28300 -3.58100 4.02800
H 0.69800 -4.47800 7.75500
H 0.83300 -2.61900 7.68000
H 2.00000 -3.75400 6.97600
Mg 13.13614 1.17562 1.00543
C 11.15663 3.14767 3.25745
C 15.26878 0.61526 3.60783
C 15.13008 -0.18791 -1.05185
C 11.51565 2.79789 -1.61906
N 13.10826 1.84800 3.11241
C 12.27381 2.54316 3.87057
C 12.61477 2.52643 5.38484
C 14.18480 2.20761 5.27431
C 14.19240 1.47927 3.93187
C 15.04447 3.45417 5.14626
C 11.85155 1.39353 6.15689
C 11.89636 1.51194 7.68192
H 10.72204 1.10141 8.44673
N 14.65832 -0.05877 1.31818
C 15.39762 -0.17072 2.44165
C 16.40607 -1.20366 2.15840
C 16.30611 -1.57507 0.72077
C 15.35415 -0.58512 0.25833
C 17.28640 -1.79450 3.22111
C 16.96860 -2.63641 -0.10438
O 16.91338 -2.62618 -1.38488
C 17.76195 -3.63528 0.62662
N 13.45462 1.43529 -1.03258
C 14.34582 0.67721 -1.69514
C 14.20554 0.85017 -3.18873
C 12.86841 1.70194 -3.39887
C 12.49894 1.96147 -1.92187
C 15.36981 1.54990 -3.88963
C 11.78777 1.09578 -4.33560
C 11.19944 -0.14744 -3.70820
N 11.48779 2.55907 0.81297
C 10.98992 3.13236 -0.37764
C 9.94057 4.09746 0.00949
C 9.91652 4.03505 1.41093
C 10.89659 3.11214 1.86610
C 9.19603 4.91928 -0.88291
C 9.29219 4.54790 2.60921
O 8.33949 5.29060 2.84268
C 10.15400 4.08988 3.86376
C 9.21153 3.53909 4.89860
O 8.56596 2.49969 4.67612
O 9.38996 4.20324 6.05507
C 8.48499 3.68544 7.11561
H 16.11705 0.56445 4.29101
H 15.71710 -0.71124 -1.81015
H 10.89598 3.27157 -2.38346
H 12.46194 3.46973 5.89533
H 14.50991 1.54301 6.07053
H 14.44642 4.34597 5.03153
H 15.66159 3.29731 4.27127
H 15.73385 3.52522 5.99246
H 12.38975 0.44591 6.02612
H 10.83217 1.32929 5.82923
H 12.24147 2.50042 8.00864
H 12.65589 0.82401 8.06123
H 17.24844 -1.20754 4.14709
H 18.32029 -1.68912 2.87492
H 17.07951 -2.85185 3.39961
H 18.54500 -3.13289 1.18957
H 18.08213 -4.36045 -0.12404
H 17.11398 -4.12822 1.35993
H 14.09246 -0.10839 -3.68011
H 13.07730 2.68411 -3.84780
H 15.81830 0.94510 -4.70028
H 16.11451 1.80119 -3.14612
H 15.13368 2.52249 -4.31801
H 12.23821 0.78301 -5.28082
H 10.98602 1.78669 -4.57398
H 11.92103 -0.92468 -3.97706
H 10.21723 -0.35923 -4.12588
H 11.19048 -0.06996 -2.61478
H 8.16639 4.88444 -0.55257
H 9.29584 4.58075 -1.91209
H 9.68769 5.88173 -0.71787
H 10.69470 4.96476 4.22679
H 7.91334 4.53911 7.49264
H 9.13929 3.15961 7.83612
H 7.68913 3.01539 6.81218

