%nproc=24
%mem=175gb
#p cam-b3lyp/Def2SVP td=(nstates=5)

TDDFT excited states in gaussian

0 1
Mg 8.94360 0.80840 0.67587
C 11.18328 -1.32288 2.49809
C 10.25522 3.42880 2.42166
C 6.68244 2.64717 -0.57856
C 7.06249 -2.03135 -0.06096
N 10.51250 0.91275 2.23148
C 11.33726 0.04626 2.80008
C 12.43829 0.69116 3.68405
C 11.69309 2.07162 4.02737
C 10.78526 2.17038 2.80313
C 10.81695 1.99061 5.26639
C 13.77072 0.93889 2.89331
C 14.98218 1.27765 3.76472
H 16.29445 0.78626 3.35368
N 8.83825 2.78344 0.51243
C 9.45295 3.69833 1.29114
C 9.03804 5.01130 0.77334
C 7.99874 4.79696 -0.27004
C 7.77973 3.37083 -0.13489
C 9.67411 6.29771 1.21377
C 7.30617 5.72449 -1.22199
O 6.26553 5.36305 -1.87717
C 7.82624 7.09773 -1.29448
N 7.02375 0.40927 -0.01495
C 6.26970 1.37964 -0.56058
C 5.04524 0.80595 -1.23288
C 5.25887 -0.77896 -1.23453
C 6.58630 -0.85621 -0.44882
C 3.70700 1.13815 -0.57323
C 5.16963 -1.49969 -2.60758
C 6.33080 -1.08730 -3.48337
N 9.16562 -1.32164 0.96166
C 8.24669 -2.33111 0.60025
C 8.78701 -3.61144 1.10149
C 9.98091 -3.25212 1.74490
C 10.16109 -1.84456 1.66880
C 8.16096 -4.88382 0.97807
C 11.12439 -3.74222 2.48039
O 11.55560 -4.85635 2.77454
C 11.89014 -2.50009 3.11058
C 13.35731 -2.66395 2.82232
O 13.78045 -2.62124 1.65367
O 14.04086 -2.62608 3.98063
C 15.50200 -2.77349 3.74574
H 10.43463 4.28585 3.07140
H 5.92529 3.22162 -1.11725
H 6.58441 -2.97422 -0.33505
H 12.66155 0.15211 4.59693
H 12.39287 2.90294 4.05120
H 10.74717 0.98177 5.64522
H 9.84230 2.34848 4.96139
H 11.17196 2.69328 6.02571
H 13.68114 1.87341 2.32462
H 14.00134 0.10170 2.26359
H 14.80314 1.05566 4.82378
H 15.13598 2.35920 3.73986
H 10.29134 6.15528 2.10940
H 8.86482 6.95800 1.54382
H 10.22723 6.79047 0.41133
H 7.77636 7.55525 -0.30927
H 7.26069 7.58265 -2.09254
H 8.88622 7.05636 -1.56897
H 4.96859 1.15128 -2.25659
H 4.50191 -1.29276 -0.62391
H 2.99577 1.63892 -1.25694
H 3.89815 1.75483 0.29493
H 3.18128 0.28814 -0.14161
H 4.26101 -1.19884 -3.13488
H 5.15213 -2.58146 -2.52723
H 5.98998 -0.14195 -3.91607
H 6.51174 -1.83232 -4.25554
H 7.22107 -0.87215 -2.88104
H 8.93463 -5.58539 0.69568
H 7.35660 -4.86180 0.24575
H 7.78553 -5.01606 1.99632
H 11.68129 -2.49524 4.18106
H 15.83932 -3.61972 4.35220
H 15.94228 -1.78424 3.97223
H 15.82220 -3.08087 2.75708

