%nproc=24
%mem=175gb
#p cam-b3lyp/Def2SVP td=(nstates=5)

TDDFT excited states in gaussian

0 1
Mg 0.00000 0.00000 0.00000
C -0.21700 -2.21800 2.80100
C -1.25500 2.44200 2.02600
C -0.24500 1.85000 -2.56400
C 0.14600 -2.82400 -2.03700
N -0.61700 -0.00900 2.12600
C -0.59400 -0.90800 3.10500
C -0.93600 -0.30900 4.50200
C -1.77300 0.96400 4.03200
C -1.15500 1.16800 2.66000
C -3.26300 0.68500 3.86300
C 0.34500 0.11000 5.29900
C 0.12400 0.39700 6.78700
H 1.16800 0.03300 7.73300
N -0.18500 1.96100 -0.15200
C -0.70300 2.80000 0.77700
C -0.62000 4.15600 0.19300
C -0.18700 4.01500 -1.22500
C -0.21400 2.58300 -1.38000
C -0.88700 5.40600 0.97400
C 0.18100 5.01300 -2.27700
O 0.30300 4.69000 -3.50800
C 0.31000 6.41400 -1.83700
N -0.26500 -0.41300 -2.02900
C -0.27900 0.56900 -2.93700
C -0.19600 0.02400 -4.33200
C 0.12400 -1.53300 -4.18000
C 0.08600 -1.63200 -2.63500
C -1.45100 0.20500 -5.19700
C 1.37300 -2.07000 -4.92300
C 2.62600 -1.49000 -4.30600
N 0.15000 -2.14400 0.30300
C 0.17300 -3.13600 -0.68800
C 0.17300 -4.43800 0.00400
C 0.13300 -4.11100 1.35800
C 0.08300 -2.69500 1.50200
C 0.14900 -5.71500 -0.62300
C 0.09600 -4.62900 2.71600
O 0.20800 -5.74700 3.22100
C -0.25500 -3.42800 3.70100
C 0.71700 -3.48200 4.84800
O 1.93100 -3.25500 4.66900
O 0.03800 -3.55600 6.00300
C 0.94300 -3.58300 7.18300
H -1.85900 3.22000 2.49700
H -0.21800 2.45300 -3.47400
H 0.27600 -3.74700 -2.60500
H -1.55400 -0.94900 5.13200
H -1.58500 1.83100 4.66500
H -3.48400 -0.37700 3.96900
H -3.51100 1.02700 2.85800
H -3.85200 1.30100 4.54300
H 0.66900 1.09600 4.96600
H 1.13000 -0.63900 5.18900
H -0.84400 0.02600 7.12500
H 0.06200 1.47700 6.92100
H -1.34400 5.18600 1.93800
H -1.65100 5.96300 0.43200
H 0.00700 6.02000 1.08400
H -0.63500 6.74400 -1.40500
H 0.66500 6.97000 -2.70400
H 1.04800 6.46600 -1.03600
H 0.60800 0.50100 -4.89100
H -0.69200 -2.15600 -4.54700
H -1.26700 0.74000 -6.12900
H -2.20400 0.71400 -4.59600
H -1.96700 -0.72000 -5.45300
H 1.35600 -1.75900 -5.96700
H 1.45200 -3.15700 -4.90200
H 2.71400 -0.52200 -4.79800
H 3.48700 -2.12100 -4.52900
H 2.49500 -1.30300 -3.24000
H 0.86700 -6.33300 -0.08400
H 0.40400 -5.64200 -1.68000
H -0.89100 -5.99900 -0.46300
H -1.28300 -3.58100 4.02800
H 0.69800 -4.47800 7.75500
H 0.83300 -2.61900 7.68000
H 2.00000 -3.75400 6.97600
Mg 7.89110 0.70271 0.59845
C 8.01344 0.00695 -2.92008
C 7.27003 -2.61628 1.08137
C 7.33149 1.35356 3.65306
C 7.38288 4.05136 -0.22252
N 7.69161 -0.98635 -0.81560
C 7.81901 -1.14160 -2.12480
C 7.81343 -2.61906 -2.60085
C 7.01302 -3.26590 -1.36805
C 7.37059 -2.25044 -0.28470
C 5.50512 -3.25263 -1.55616
C 9.26048 -3.21363 -2.72154
C 9.34855 -4.54397 -3.47267
H 10.52351 -4.79885 -4.30149
N 7.86222 -0.49320 2.18197
C 7.61534 -1.81991 2.19533
C 7.69064 -2.22896 3.60642
C 7.83911 -1.00642 4.44192
C 7.65852 0.02268 3.43771
C 7.70102 -3.66688 4.03735
C 8.08805 -0.79798 5.90506
O 7.94374 0.35039 6.45574
C 8.41489 -1.99627 6.69168
N 7.21490 2.40863 1.57567
C 7.11036 2.44205 2.91577
C 6.87132 3.84905 3.40934
C 7.07895 4.79251 2.13484
C 7.32528 3.71288 1.05822
C 5.49571 4.11497 4.02037
C 8.10940 5.94643 2.27382
C 9.50529 5.37959 2.39867
N 7.90720 1.87972 -1.21330
C 7.64337 3.26161 -1.33510
C 7.65937 3.58247 -2.77705
C 7.91060 2.35084 -3.40031
C 8.02184 1.33057 -2.41736
C 7.41106 4.86287 -3.34717
C 8.09642 1.67996 -4.66684
O 8.19466 2.04575 -5.83743
C 8.04562 0.11066 -4.41968
C 9.21055 -0.51097 -5.14014
O 10.37703 -0.26405 -4.78665
O 8.75455 -1.45728 -5.98092
C 9.87387 -2.11039 -6.71057
H 6.84713 -3.59061 1.32778
H 7.23714 1.65252 4.69958
H 7.33024 5.09039 -0.55466
H 7.27793 -2.79626 -3.52585
H 7.40444 -4.24768 -1.11453
H 5.21397 -2.70167 -2.43809
H 5.10192 -2.78483 -0.66755
H 5.11683 -4.27515 -1.56106
H 9.59919 -3.53579 -1.72845
H 9.92872 -2.50237 -3.16673
H 8.42997 -4.76422 -4.03003
H 9.41797 -5.35201 -2.74036
H 7.41260 -4.33492 3.21642
H 6.90176 -3.78478 4.77705
H 8.64901 -3.96381 4.49100
H 7.60546 -2.71719 6.60474
H 8.64613 -1.63314 7.69495
H 9.30402 -2.46758 6.25817
H 7.59412 4.12044 4.16895
H 6.14929 5.30932 1.85469
H 5.54539 4.50166 5.05578
H 4.92300 3.19779 3.98406
H 4.86605 4.80289 3.45867
H 7.92174 6.51359 3.18884
H 8.08428 6.64972 1.44814
H 9.57869 5.13663 3.46294
H 10.24726 6.12178 2.11116
H 9.60075 4.44180 1.83913
H 8.15278 5.00814 -4.12129
H 7.45986 5.64869 -2.59625
H 6.39459 4.71572 -3.72188
H 7.08923 -0.25011 -4.80012
H 9.66028 -2.01010 -7.77921
H 9.93694 -3.13715 -6.30368
H 10.85178 -1.64781 -6.64603

