%nproc=24
%mem=175gb
#p cam-b3lyp/Def2SVP td=(nstates=5)

TDDFT excited states in gaussian

0 1
Mg 0.00000 0.00000 0.00000
C -0.21700 -2.21800 2.80100
C -1.25500 2.44200 2.02600
C -0.24500 1.85000 -2.56400
C 0.14600 -2.82400 -2.03700
N -0.61700 -0.00900 2.12600
C -0.59400 -0.90800 3.10500
C -0.93600 -0.30900 4.50200
C -1.77300 0.96400 4.03200
C -1.15500 1.16800 2.66000
C -3.26300 0.68500 3.86300
C 0.34500 0.11000 5.29900
C 0.12400 0.39700 6.78700
H 1.16800 0.03300 7.73300
N -0.18500 1.96100 -0.15200
C -0.70300 2.80000 0.77700
C -0.62000 4.15600 0.19300
C -0.18700 4.01500 -1.22500
C -0.21400 2.58300 -1.38000
C -0.88700 5.40600 0.97400
C 0.18100 5.01300 -2.27700
O 0.30300 4.69000 -3.50800
C 0.31000 6.41400 -1.83700
N -0.26500 -0.41300 -2.02900
C -0.27900 0.56900 -2.93700
C -0.19600 0.02400 -4.33200
C 0.12400 -1.53300 -4.18000
C 0.08600 -1.63200 -2.63500
C -1.45100 0.20500 -5.19700
C 1.37300 -2.07000 -4.92300
C 2.62600 -1.49000 -4.30600
N 0.15000 -2.14400 0.30300
C 0.17300 -3.13600 -0.68800
C 0.17300 -4.43800 0.00400
C 0.13300 -4.11100 1.35800
C 0.08300 -2.69500 1.50200
C 0.14900 -5.71500 -0.62300
C 0.09600 -4.62900 2.71600
O 0.20800 -5.74700 3.22100
C -0.25500 -3.42800 3.70100
C 0.71700 -3.48200 4.84800
O 1.93100 -3.25500 4.66900
O 0.03800 -3.55600 6.00300
C 0.94300 -3.58300 7.18300
H -1.85900 3.22000 2.49700
H -0.21800 2.45300 -3.47400
H 0.27600 -3.74700 -2.60500
H -1.55400 -0.94900 5.13200
H -1.58500 1.83100 4.66500
H -3.48400 -0.37700 3.96900
H -3.51100 1.02700 2.85800
H -3.85200 1.30100 4.54300
H 0.66900 1.09600 4.96600
H 1.13000 -0.63900 5.18900
H -0.84400 0.02600 7.12500
H 0.06200 1.47700 6.92100
H -1.34400 5.18600 1.93800
H -1.65100 5.96300 0.43200
H 0.00700 6.02000 1.08400
H -0.63500 6.74400 -1.40500
H 0.66500 6.97000 -2.70400
H 1.04800 6.46600 -1.03600
H 0.60800 0.50100 -4.89100
H -0.69200 -2.15600 -4.54700
H -1.26700 0.74000 -6.12900
H -2.20400 0.71400 -4.59600
H -1.96700 -0.72000 -5.45300
H 1.35600 -1.75900 -5.96700
H 1.45200 -3.15700 -4.90200
H 2.71400 -0.52200 -4.79800
H 3.48700 -2.12100 -4.52900
H 2.49500 -1.30300 -3.24000
H 0.86700 -6.33300 -0.08400
H 0.40400 -5.64200 -1.68000
H -0.89100 -5.99900 -0.46300
H -1.28300 -3.58100 4.02800
H 0.69800 -4.47800 7.75500
H 0.83300 -2.61900 7.68000
H 2.00000 -3.75400 6.97600
Mg 7.89279 0.71408 0.59852
C 9.67255 -1.40327 2.88507
C 8.64980 3.32418 2.65980
C 5.95995 2.52503 -1.14849
C 6.34030 -2.15351 -0.63130
N 9.02199 0.82058 2.49741
C 9.70530 -0.03829 3.23888
C 10.53215 0.61274 4.37995
C 9.68374 1.96557 4.55000
C 9.10610 2.07069 3.14006
C 8.53003 1.83322 5.53019
C 12.01120 0.91246 3.95031
C 12.95732 1.26058 5.10158
H 14.34477 0.81209 5.02216
N 7.77187 2.68919 0.44723
C 8.14591 3.60038 1.36978
C 7.83331 4.91451 0.78711
C 7.09286 4.69913 -0.48571
C 6.89022 3.26515 -0.43338
C 8.30089 6.20558 1.39367
C 6.63096 5.63144 -1.56443
O 5.79717 5.25976 -2.46415
C 7.11109 7.01858 -1.48199
N 6.21779 0.28360 -0.55535
C 5.59409 1.24751 -1.25521
C 4.59300 0.65954 -2.22086
C 4.84800 -0.91905 -2.19591
C 5.94024 -0.98174 -1.10573
C 3.12342 0.94238 -1.90985
C 5.12457 -1.60892 -3.55982
C 6.45398 -1.14689 -4.11171
N 8.10092 -1.41594 0.89474
C 7.33151 -2.43920 0.29890
C 7.76865 -3.71718 0.89732
C 8.75380 -3.34352 1.82379
C 8.90473 -1.93048 1.81865
C 7.23156 -5.00152 0.60048
C 9.69286 -3.82223 2.81258
O 10.07082 -4.93190 3.18608
C 10.24017 -2.57668 3.63443
C 11.73720 -2.69689 3.71800
O 12.43601 -2.61582 2.69247
O 12.10999 -2.66950 5.01053
C 13.58741 -2.77469 5.14455
H 8.63619 4.16975 3.34807
H 5.34346 3.09303 -1.84906
H 5.97398 -3.10124 -1.03165
H 10.53769 0.05787 5.31047
H 10.33027 2.81333 4.76137
H 8.39873 0.81422 5.86268
H 7.65142 2.17375 4.99809
H 8.66384 2.52628 6.36571
H 12.03763 1.85771 3.39303
H 12.41621 0.09652 3.38389
H 12.52747 1.00905 6.07878
H 13.07979 2.34592 5.13401
H 8.68018 6.05737 2.41228
H 7.41544 6.83739 1.52279
H 9.02097 6.73097 0.76270
H 6.80416 7.45115 -0.53270
H 6.74726 7.50805 -2.38749
H 8.20678 7.01028 -1.48445
H 4.76278 1.02710 -3.22544
H 3.97889 -1.46600 -1.80181
H 2.58965 1.44133 -2.74065
H 3.07414 1.54281 -1.01119
H 2.53279 0.06945 -1.63714
H 4.36685 -1.31842 -4.29169
H 5.12026 -2.69239 -3.50457
H 6.20305 -0.20033 -4.59971
H 6.84351 -1.86857 -4.82689
H 7.15972 -0.92393 -3.30309
H 8.07192 -5.67661 0.50794
H 6.63414 -4.98221 -0.30864
H 6.61901 -5.16729 1.49074
H 9.77180 -2.60252 4.61908
H 13.78878 -3.62641 5.80160
H 13.92757 -1.78041 5.49017
H 14.15238 -3.05036 4.26179

