%nproc=24
%mem=175gb
#p cam-b3lyp/Def2SVP td=(nstates=5)

TDDFT excited states in gaussian

0 1
Mg 0.00000 0.00000 0.00000
C -0.21700 -2.21800 2.80100
C -1.25500 2.44200 2.02600
C -0.24500 1.85000 -2.56400
C 0.14600 -2.82400 -2.03700
N -0.61700 -0.00900 2.12600
C -0.59400 -0.90800 3.10500
C -0.93600 -0.30900 4.50200
C -1.77300 0.96400 4.03200
C -1.15500 1.16800 2.66000
C -3.26300 0.68500 3.86300
C 0.34500 0.11000 5.29900
C 0.12400 0.39700 6.78700
H 1.16800 0.03300 7.73300
N -0.18500 1.96100 -0.15200
C -0.70300 2.80000 0.77700
C -0.62000 4.15600 0.19300
C -0.18700 4.01500 -1.22500
C -0.21400 2.58300 -1.38000
C -0.88700 5.40600 0.97400
C 0.18100 5.01300 -2.27700
O 0.30300 4.69000 -3.50800
C 0.31000 6.41400 -1.83700
N -0.26500 -0.41300 -2.02900
C -0.27900 0.56900 -2.93700
C -0.19600 0.02400 -4.33200
C 0.12400 -1.53300 -4.18000
C 0.08600 -1.63200 -2.63500
C -1.45100 0.20500 -5.19700
C 1.37300 -2.07000 -4.92300
C 2.62600 -1.49000 -4.30600
N 0.15000 -2.14400 0.30300
C 0.17300 -3.13600 -0.68800
C 0.17300 -4.43800 0.00400
C 0.13300 -4.11100 1.35800
C 0.08300 -2.69500 1.50200
C 0.14900 -5.71500 -0.62300
C 0.09600 -4.62900 2.71600
O 0.20800 -5.74700 3.22100
C -0.25500 -3.42800 3.70100
C 0.71700 -3.48200 4.84800
O 1.93100 -3.25500 4.66900
O 0.03800 -3.55600 6.00300
C 0.94300 -3.58300 7.18300
H -1.85900 3.22000 2.49700
H -0.21800 2.45300 -3.47400
H 0.27600 -3.74700 -2.60500
H -1.55400 -0.94900 5.13200
H -1.58500 1.83100 4.66500
H -3.48400 -0.37700 3.96900
H -3.51100 1.02700 2.85800
H -3.85200 1.30100 4.54300
H 0.66900 1.09600 4.96600
H 1.13000 -0.63900 5.18900
H -0.84400 0.02600 7.12500
H 0.06200 1.47700 6.92100
H -1.34400 5.18600 1.93800
H -1.65100 5.96300 0.43200
H 0.00700 6.02000 1.08400
H -0.63500 6.74400 -1.40500
H 0.66500 6.97000 -2.70400
H 1.04800 6.46600 -1.03600
H 0.60800 0.50100 -4.89100
H -0.69200 -2.15600 -4.54700
H -1.26700 0.74000 -6.12900
H -2.20400 0.71400 -4.59600
H -1.96700 -0.72000 -5.45300
H 1.35600 -1.75900 -5.96700
H 1.45200 -3.15700 -4.90200
H 2.71400 -0.52200 -4.79800
H 3.48700 -2.12100 -4.52900
H 2.49500 -1.30300 -3.24000
H 0.86700 -6.33300 -0.08400
H 0.40400 -5.64200 -1.68000
H -0.89100 -5.99900 -0.46300
H -1.28300 -3.58100 4.02800
H 0.69800 -4.47800 7.75500
H 0.83300 -2.61900 7.68000
H 2.00000 -3.75400 6.97600
Mg 8.93219 0.81291 0.68455
C 11.02575 0.19614 3.53335
C 6.27705 0.82440 2.82574
C 7.01950 0.90622 -1.84534
C 11.53524 -0.36738 -1.30963
N 8.79639 0.53558 2.87473
C 9.66481 0.36930 3.86091
C 9.05035 0.46995 5.28283
C 7.53336 0.09113 4.91661
C 7.51445 0.54146 3.45732
C 7.25916 -1.40298 4.95898
C 9.15319 1.91843 5.87726
C 8.85553 2.02165 7.37475
H 9.60689 2.99001 8.16862
N 7.02459 1.33962 0.53551
C 6.09172 1.30277 1.51001
C 4.84299 1.77163 0.88951
C 5.07642 1.93154 -0.57153
C 6.40563 1.36642 -0.68952
C 3.61188 2.09761 1.68420
C 4.23658 2.48780 -1.68124
O 4.54429 2.30990 -2.91270
C 2.99385 3.16662 -1.28586
N 9.14817 0.14324 -1.27178
C 8.18552 0.35690 -2.18588
C 8.67446 0.03609 -3.57815
C 10.24848 -0.20803 -3.43512
C 10.38819 -0.06758 -1.90340
C 8.03001 -1.17834 -4.24616
C 11.17801 0.64285 -4.34322
C 11.10955 2.09655 -3.93400
N 10.98677 0.22243 0.99773
C 11.89134 -0.26493 0.02905
C 13.13046 -0.64042 0.74041
C 12.85037 -0.36480 2.08728
C 11.52283 0.12739 2.20937
C 14.29349 -1.20452 0.14436
C 13.37218 -0.38831 3.43482
O 14.46955 -0.62693 3.93738
C 12.17048 -0.14530 4.44638
C 12.60544 0.89365 5.44334
O 12.83507 2.06078 5.08047
O 12.46880 0.39630 6.68606
C 12.87741 1.39396 7.71053
H 5.35650 0.62175 3.37384
H 6.44010 1.02037 -2.76444
H 12.42715 -0.65119 -1.87233
H 9.44748 -0.23791 6.00046
H 6.82805 0.67290 5.50435
H 8.16247 -1.97415 5.11369
H 6.81576 -1.64792 4.00271
H 6.49626 -1.62506 5.71065
H 8.33126 2.52774 5.47988
H 10.11371 2.34830 5.66929
H 8.85694 1.03999 7.86392
H 7.83189 2.38254 7.50101
H 3.68677 1.72454 2.71309
H 2.78764 1.52401 1.24662
H 3.35918 3.15960 1.65276
H 2.36740 2.47601 -0.72632
H 2.57665 3.57347 -2.20906
H 3.24490 3.98683 -0.60407
H 8.50771 0.87038 -4.24840
H 10.52428 -1.24375 -3.68217
H 7.55488 -0.94160 -5.21688
H 7.30641 -1.60054 -3.56156
H 8.69973 -2.01852 -4.42154
H 10.83941 0.59633 -5.38117
H 12.21295 0.31781 -4.32722
H 10.21458 2.45638 -4.45037
H 11.99798 2.63013 -4.26568
H 10.93037 2.19420 -2.85696
H 15.14399 -0.69840 0.58138
H 14.27816 -1.09559 -0.93808
H 14.18476 -2.24752 0.45353
H 11.94476 -1.10029 4.92241
H 13.64478 0.91970 8.33012
H 11.94302 1.70376 8.21520
H 13.39988 2.27931 7.36755

