%nproc=24
%mem=175gb
#p cam-b3lyp/Def2SVP td=(nstates=5)

TDDFT excited states in gaussian

0 1
Mg 0.00000 0.00000 0.00000
C -0.21700 -2.21800 2.80100
C -1.25500 2.44200 2.02600
C -0.24500 1.85000 -2.56400
C 0.14600 -2.82400 -2.03700
N -0.61700 -0.00900 2.12600
C -0.59400 -0.90800 3.10500
C -0.93600 -0.30900 4.50200
C -1.77300 0.96400 4.03200
C -1.15500 1.16800 2.66000
C -3.26300 0.68500 3.86300
C 0.34500 0.11000 5.29900
C 0.12400 0.39700 6.78700
H 1.16800 0.03300 7.73300
N -0.18500 1.96100 -0.15200
C -0.70300 2.80000 0.77700
C -0.62000 4.15600 0.19300
C -0.18700 4.01500 -1.22500
C -0.21400 2.58300 -1.38000
C -0.88700 5.40600 0.97400
C 0.18100 5.01300 -2.27700
O 0.30300 4.69000 -3.50800
C 0.31000 6.41400 -1.83700
N -0.26500 -0.41300 -2.02900
C -0.27900 0.56900 -2.93700
C -0.19600 0.02400 -4.33200
C 0.12400 -1.53300 -4.18000
C 0.08600 -1.63200 -2.63500
C -1.45100 0.20500 -5.19700
C 1.37300 -2.07000 -4.92300
C 2.62600 -1.49000 -4.30600
N 0.15000 -2.14400 0.30300
C 0.17300 -3.13600 -0.68800
C 0.17300 -4.43800 0.00400
C 0.13300 -4.11100 1.35800
C 0.08300 -2.69500 1.50200
C 0.14900 -5.71500 -0.62300
C 0.09600 -4.62900 2.71600
O 0.20800 -5.74700 3.22100
C -0.25500 -3.42800 3.70100
C 0.71700 -3.48200 4.84800
O 1.93100 -3.25500 4.66900
O 0.03800 -3.55600 6.00300
C 0.94300 -3.58300 7.18300
H -1.85900 3.22000 2.49700
H -0.21800 2.45300 -3.47400
H 0.27600 -3.74700 -2.60500
H -1.55400 -0.94900 5.13200
H -1.58500 1.83100 4.66500
H -3.48400 -0.37700 3.96900
H -3.51100 1.02700 2.85800
H -3.85200 1.30100 4.54300
H 0.66900 1.09600 4.96600
H 1.13000 -0.63900 5.18900
H -0.84400 0.02600 7.12500
H 0.06200 1.47700 6.92100
H -1.34400 5.18600 1.93800
H -1.65100 5.96300 0.43200
H 0.00700 6.02000 1.08400
H -0.63500 6.74400 -1.40500
H 0.66500 6.97000 -2.70400
H 1.04800 6.46600 -1.03600
H 0.60800 0.50100 -4.89100
H -0.69200 -2.15600 -4.54700
H -1.26700 0.74000 -6.12900
H -2.20400 0.71400 -4.59600
H -1.96700 -0.72000 -5.45300
H 1.35600 -1.75900 -5.96700
H 1.45200 -3.15700 -4.90200
H 2.71400 -0.52200 -4.79800
H 3.48700 -2.12100 -4.52900
H 2.49500 -1.30300 -3.24000
H 0.86700 -6.33300 -0.08400
H 0.40400 -5.64200 -1.68000
H -0.89100 -5.99900 -0.46300
H -1.28300 -3.58100 4.02800
H 0.69800 -4.47800 7.75500
H 0.83300 -2.61900 7.68000
H 2.00000 -3.75400 6.97600
Mg 15.76288 1.41248 1.20493
C 14.01764 3.59525 3.45631
C 17.77464 0.56301 3.82520
C 17.59628 -0.17036 -0.84463
C 14.39270 3.25127 -1.41941
N 15.79246 2.06221 3.31898
C 15.04214 2.84917 4.07534
C 15.35877 2.77480 5.59316
C 16.87768 2.26239 5.49712
C 16.81111 1.55215 4.14664
C 17.88857 3.39228 5.39322
C 14.44955 1.73919 6.34338
C 14.48922 1.83598 7.87008
H 13.26292 1.56869 8.61655
N 17.11397 -0.00638 1.52112
C 17.81885 -0.22138 2.65170
C 18.69327 -1.36997 2.36833
C 18.56601 -1.71169 0.92550
C 17.75184 -0.60548 0.46343
C 19.47873 -2.07718 3.43432
C 19.10064 -2.83965 0.09600
O 19.06364 -2.80993 -1.18485
C 19.75290 -3.93742 0.82466
N 16.13764 1.65018 -0.82618
C 16.93513 0.79272 -1.48702
C 16.83691 0.99667 -2.98005
C 15.62005 2.01169 -3.19588
C 15.26708 2.30099 -1.72038
C 18.08870 1.55148 -3.65945
C 14.48404 1.55536 -4.15187
C 13.73632 0.38975 -3.54551
N 14.30377 2.99386 1.00926
C 13.89715 3.63687 -0.18040
C 12.97231 4.72227 0.20558
C 12.92257 4.64955 1.60584
C 13.77314 3.60639 2.06173
C 12.34834 5.63988 -0.68593
C 12.35215 5.22492 2.80262
O 11.49726 6.07908 3.03353
C 13.13345 4.64991 4.06171
C 12.11606 4.21170 5.07926
O 11.34808 3.26387 4.83752
O 12.36152 4.83673 6.24522
C 11.38514 4.42627 7.28927
H 18.60096 0.39931 4.51750
H 18.12270 -0.75578 -1.60202
H 13.84727 3.80656 -2.18546
H 15.31897 3.72474 6.11257
H 17.10654 1.55439 6.28941
H 17.40868 4.35324 5.28177
H 18.49234 3.16779 4.52368
H 18.57045 3.36782 6.24807
H 14.86622 0.73281 6.20803
H 13.43447 1.80674 6.00327
H 14.95141 2.77000 8.21201
H 15.15147 1.05437 8.25025
H 19.50280 -1.49927 4.36644
H 20.52204 -2.09910 3.10131
H 19.13851 -3.10188 3.59835
H 20.58549 -3.54296 1.40230
H 19.98919 -4.68963 0.06952
H 19.03880 -4.35228 1.54478
H 16.61076 0.06480 -3.48361
H 15.95630 2.96423 -3.63114
H 18.46816 0.90317 -4.47171
H 18.84942 1.69988 -2.90457
H 17.98203 2.55021 -4.07940
H 14.90380 1.19782 -5.09533
H 13.77846 2.34383 -4.39158
H 14.35808 -0.46928 -3.81488
H 12.74076 0.30716 -3.97689
H 13.72307 0.45695 -2.45146
H 11.31830 5.73140 -0.36790
H 12.41813 5.30166 -1.71768
H 12.95472 6.53126 -0.50425
H 13.77494 5.44632 4.44092
H 10.92033 5.34123 7.66939
H 11.95895 3.81533 8.01124
H 10.51546 3.86453 6.96905

