%nproc=24
%mem=175gb
#p cam-b3lyp/Def2SVP td=(nstates=5)

TDDFT excited states in gaussian

0 1
Mg 31.53790 2.84372 2.40305
C 30.99909 0.58720 5.14109
C 30.00213 5.24578 4.27551
C 31.59181 4.72751 -0.14956
C 31.97387 0.04905 0.36702
N 30.65762 2.80062 4.43173
C 30.56599 1.90389 5.40220
C 30.05120 2.46871 6.75332
C 29.25364 3.74466 6.19231
C 30.03658 3.97398 4.90115
C 27.81022 3.43962 5.82786
C 31.22140 2.89656 7.70704
C 30.80520 3.16636 9.15471
H 31.73281 2.80766 10.22398
N 31.34586 4.81353 2.25635
C 30.71066 5.63558 3.11776
C 30.83476 6.98700 2.54992
C 31.45212 6.87394 1.20055
C 31.46848 5.43401 1.03796
C 30.46116 8.22643 3.30994
C 31.93465 7.89350 0.21371
O 32.21715 7.57855 -0.99618
C 31.97752 9.28742 0.67917
N 31.54151 2.45181 0.36130
C 31.62154 3.45145 -0.53438
C 31.88612 2.91990 -1.92285
C 32.20898 1.36509 -1.73336
C 31.97758 1.24225 -0.21127
C 30.74502 3.08382 -2.92655
C 33.55062 0.84817 -2.32112
C 34.71184 1.44234 -1.55697
N 31.68342 0.70891 2.70214
C 31.83954 -0.28285 1.70910
C 31.77092 -1.59319 2.38786
C 31.55490 -1.27081 3.73615
C 31.47308 0.14020 3.88400
C 31.85442 -2.86438 1.75284
C 31.36688 -1.80365 5.06635
O 31.42372 -2.92523 5.56891
C 30.87241 -0.62895 6.01606
C 31.69255 -0.67399 7.27616
O 32.91358 -0.44016 7.24426
O 30.86822 -0.77017 8.33522
C 31.63457 -0.80703 9.60926
H 29.33728 6.00722 4.68426
H 31.72534 5.33480 -1.04781
H 32.19861 -0.86708 -0.18333
H 29.37528 1.81470 7.29108
H 29.35632 4.59831 6.85722
H 27.59205 2.38417 5.89541
H 27.68366 3.78781 4.81111
H 27.13179 4.04156 6.43920
H 31.56809 3.89806 7.42146
H 32.01284 2.17277 7.68749
H 29.80072 2.78381 9.37293
H 30.71696 4.24644 9.29486
H 29.88226 7.98693 4.21045
H 29.76364 8.78948 2.68041
H 31.32297 8.85829 3.53511
H 30.98290 9.59360 0.99452
H 32.43257 9.85376 -0.13573
H 32.61909 9.34061 1.56583
H 32.74675 3.40612 -2.36559
H 31.45322 0.72994 -2.21839
H 31.03986 3.64175 -3.83532
H 29.92056 3.57658 -2.42856
H 30.28919 2.15434 -3.26341
H 33.66113 1.17574 -3.35777
H 33.63708 -0.23325 -2.31415
H 34.84108 2.42193 -2.02685
H 35.60214 0.82780 -1.67421
H 34.44619 1.61275 -0.50719
H 32.50160 -3.47697 2.36635
H 32.23410 -2.77715 0.73697
H 30.80273 -3.16233 1.77382
H 29.81171 -0.79055 6.21196
H 31.32899 -1.71414 10.13978
H 31.43282 0.15992 10.10731
H 32.70683 -0.95055 9.54519

