%nproc=24
%mem=175gb
#p cam-b3lyp/Def2SVP td=(nstates=5)

TDDFT excited states in gaussian

0 1
Mg 0.00000 0.00000 0.00000
C -0.21700 -2.21800 2.80100
C -1.25500 2.44200 2.02600
C -0.24500 1.85000 -2.56400
C 0.14600 -2.82400 -2.03700
N -0.61700 -0.00900 2.12600
C -0.59400 -0.90800 3.10500
C -0.93600 -0.30900 4.50200
C -1.77300 0.96400 4.03200
C -1.15500 1.16800 2.66000
C -3.26300 0.68500 3.86300
C 0.34500 0.11000 5.29900
C 0.12400 0.39700 6.78700
H 1.16800 0.03300 7.73300
N -0.18500 1.96100 -0.15200
C -0.70300 2.80000 0.77700
C -0.62000 4.15600 0.19300
C -0.18700 4.01500 -1.22500
C -0.21400 2.58300 -1.38000
C -0.88700 5.40600 0.97400
C 0.18100 5.01300 -2.27700
O 0.30300 4.69000 -3.50800
C 0.31000 6.41400 -1.83700
N -0.26500 -0.41300 -2.02900
C -0.27900 0.56900 -2.93700
C -0.19600 0.02400 -4.33200
C 0.12400 -1.53300 -4.18000
C 0.08600 -1.63200 -2.63500
C -1.45100 0.20500 -5.19700
C 1.37300 -2.07000 -4.92300
C 2.62600 -1.49000 -4.30600
N 0.15000 -2.14400 0.30300
C 0.17300 -3.13600 -0.68800
C 0.17300 -4.43800 0.00400
C 0.13300 -4.11100 1.35800
C 0.08300 -2.69500 1.50200
C 0.14900 -5.71500 -0.62300
C 0.09600 -4.62900 2.71600
O 0.20800 -5.74700 3.22100
C -0.25500 -3.42800 3.70100
C 0.71700 -3.48200 4.84800
O 1.93100 -3.25500 4.66900
O 0.03800 -3.55600 6.00300
C 0.94300 -3.58300 7.18300
H -1.85900 3.22000 2.49700
H -0.21800 2.45300 -3.47400
H 0.27600 -3.74700 -2.60500
H -1.55400 -0.94900 5.13200
H -1.58500 1.83100 4.66500
H -3.48400 -0.37700 3.96900
H -3.51100 1.02700 2.85800
H -3.85200 1.30100 4.54300
H 0.66900 1.09600 4.96600
H 1.13000 -0.63900 5.18900
H -0.84400 0.02600 7.12500
H 0.06200 1.47700 6.92100
H -1.34400 5.18600 1.93800
H -1.65100 5.96300 0.43200
H 0.00700 6.02000 1.08400
H -0.63500 6.74400 -1.40500
H 0.66500 6.97000 -2.70400
H 1.04800 6.46600 -1.03600
H 0.60800 0.50100 -4.89100
H -0.69200 -2.15600 -4.54700
H -1.26700 0.74000 -6.12900
H -2.20400 0.71400 -4.59600
H -1.96700 -0.72000 -5.45300
H 1.35600 -1.75900 -5.96700
H 1.45200 -3.15700 -4.90200
H 2.71400 -0.52200 -4.79800
H 3.48700 -2.12100 -4.52900
H 2.49500 -1.30300 -3.24000
H 0.86700 -6.33300 -0.08400
H 0.40400 -5.64200 -1.68000
H -0.89100 -5.99900 -0.46300
H -1.28300 -3.58100 4.02800
H 0.69800 -4.47800 7.75500
H 0.83300 -2.61900 7.68000
H 2.00000 -3.75400 6.97600
Mg 15.77341 1.42545 1.19268
C 15.16203 4.60524 2.74001
C 14.98451 2.89061 -1.78483
C 15.86462 -1.45470 -0.13540
C 15.39557 -0.02259 4.34008
N 15.16818 3.48847 0.67316
C 15.02932 4.62680 1.33595
C 14.81079 5.87254 0.43599
C 14.21059 5.13286 -0.85689
C 14.85152 3.75893 -0.67198
C 12.70090 4.96612 -0.80816
C 16.15386 6.61223 0.10278
C 15.98639 8.00414 -0.51064
H 16.95582 9.03933 -0.16272
N 15.94962 0.89421 -0.71134
C 15.60122 1.62021 -1.79430
C 15.91125 0.77804 -2.95998
C 16.31732 -0.56781 -2.47162
C 16.03339 -0.43168 -1.05707
C 15.88522 1.29661 -4.36846
C 16.85811 -1.78140 -3.16513
O 16.91719 -2.92060 -2.58069
C 17.22946 -1.61801 -4.57824
N 15.43996 -0.48448 1.94322
C 15.59704 -1.57004 1.16553
C 15.57387 -2.83722 1.98657
C 15.61081 -2.36099 3.51281
C 15.55650 -0.83191 3.30217
C 14.36741 -3.74984 1.76753
C 16.74047 -2.94455 4.40500
C 18.08279 -2.42305 3.94502
N 15.53946 2.14322 3.21707
C 15.37216 1.36555 4.38382
C 15.13823 2.30255 5.50174
C 15.16296 3.56934 4.89914
C 15.37574 3.43049 3.50095
C 14.89191 1.93764 6.85536
C 15.04686 4.99188 5.12627
O 14.94903 5.70740 6.12236
C 14.91497 5.71919 3.71914
C 15.86506 6.88526 3.70812
O 17.09396 6.69969 3.75243
O 15.18000 8.00919 3.42910
C 16.08114 9.19185 3.39610
H 14.53765 3.19042 -2.73315
H 15.99737 -2.46676 -0.52475
H 15.36627 -0.39027 5.36800
H 14.09534 6.59008 0.81944
H 14.56091 5.59653 -1.77539
H 12.29278 5.26797 0.14497
H 12.51530 3.91448 -0.98324
H 12.23582 5.49739 -1.64349
H 16.64866 6.09774 -0.73102
H 16.78089 6.67301 0.97097
H 14.96311 8.38304 -0.39979
H 16.12779 7.92638 -1.59137
H 15.39084 2.27407 -4.42817
H 15.23541 0.62800 -4.94341
H 16.87473 1.31108 -4.83034
H 16.36167 -1.28689 -5.14372
H 17.67766 -2.56843 -4.87438
H 17.97716 -0.82059 -4.65354
H 16.44862 -3.44374 1.78642
H 14.69060 -2.63732 4.04825
H 14.64614 -4.77606 1.46217
H 13.72464 -3.29389 1.02626
H 13.70083 -3.84737 2.62273
H 16.77892 -4.03200 4.30435
H 16.61587 -2.72295 5.45968
H 18.33828 -3.09372 3.11918
H 18.81468 -2.48857 4.74757
H 17.99163 -1.41167 3.53217
H 15.48112 2.60521 7.46993
H 15.14826 0.89640 7.03939
H 13.81390 2.11100 6.91102
H 13.87698 6.03581 3.61004
H 15.67593 9.92210 4.10336
H 16.13597 9.49611 2.33395
H 17.08809 9.06547 3.77625

