%nproc=24
%mem=175gb
#p cam-b3lyp/Def2SVP td=(nstates=5)

TDDFT excited states in gaussian

0 1
Mg 0.00000 0.00000 0.00000
C -0.21700 -2.21800 2.80100
C -1.25500 2.44200 2.02600
C -0.24500 1.85000 -2.56400
C 0.14600 -2.82400 -2.03700
N -0.61700 -0.00900 2.12600
C -0.59400 -0.90800 3.10500
C -0.93600 -0.30900 4.50200
C -1.77300 0.96400 4.03200
C -1.15500 1.16800 2.66000
C -3.26300 0.68500 3.86300
C 0.34500 0.11000 5.29900
C 0.12400 0.39700 6.78700
H 1.16800 0.03300 7.73300
N -0.18500 1.96100 -0.15200
C -0.70300 2.80000 0.77700
C -0.62000 4.15600 0.19300
C -0.18700 4.01500 -1.22500
C -0.21400 2.58300 -1.38000
C -0.88700 5.40600 0.97400
C 0.18100 5.01300 -2.27700
O 0.30300 4.69000 -3.50800
C 0.31000 6.41400 -1.83700
N -0.26500 -0.41300 -2.02900
C -0.27900 0.56900 -2.93700
C -0.19600 0.02400 -4.33200
C 0.12400 -1.53300 -4.18000
C 0.08600 -1.63200 -2.63500
C -1.45100 0.20500 -5.19700
C 1.37300 -2.07000 -4.92300
C 2.62600 -1.49000 -4.30600
N 0.15000 -2.14400 0.30300
C 0.17300 -3.13600 -0.68800
C 0.17300 -4.43800 0.00400
C 0.13300 -4.11100 1.35800
C 0.08300 -2.69500 1.50200
C 0.14900 -5.71500 -0.62300
C 0.09600 -4.62900 2.71600
O 0.20800 -5.74700 3.22100
C -0.25500 -3.42800 3.70100
C 0.71700 -3.48200 4.84800
O 1.93100 -3.25500 4.66900
O 0.03800 -3.55600 6.00300
C 0.94300 -3.58300 7.18300
H -1.85900 3.22000 2.49700
H -0.21800 2.45300 -3.47400
H 0.27600 -3.74700 -2.60500
H -1.55400 -0.94900 5.13200
H -1.58500 1.83100 4.66500
H -3.48400 -0.37700 3.96900
H -3.51100 1.02700 2.85800
H -3.85200 1.30100 4.54300
H 0.66900 1.09600 4.96600
H 1.13000 -0.63900 5.18900
H -0.84400 0.02600 7.12500
H 0.06200 1.47700 6.92100
H -1.34400 5.18600 1.93800
H -1.65100 5.96300 0.43200
H 0.00700 6.02000 1.08400
H -0.63500 6.74400 -1.40500
H 0.66500 6.97000 -2.70400
H 1.04800 6.46600 -1.03600
H 0.60800 0.50100 -4.89100
H -0.69200 -2.15600 -4.54700
H -1.26700 0.74000 -6.12900
H -2.20400 0.71400 -4.59600
H -1.96700 -0.72000 -5.45300
H 1.35600 -1.75900 -5.96700
H 1.45200 -3.15700 -4.90200
H 2.71400 -0.52200 -4.79800
H 3.48700 -2.12100 -4.52900
H 2.49500 -1.30300 -3.24000
H 0.86700 -6.33300 -0.08400
H 0.40400 -5.64200 -1.68000
H -0.89100 -5.99900 -0.46300
H -1.28300 -3.58100 4.02800
H 0.69800 -4.47800 7.75500
H 0.83300 -2.61900 7.68000
H 2.00000 -3.75400 6.97600
Mg 15.77369 1.41384 1.20282
C 15.98654 -1.51255 -0.86358
C 14.88096 -0.64658 3.77037
C 15.14081 4.00087 2.92740
C 15.55753 3.29459 -1.72323
N 15.50356 -0.77857 1.31520
C 15.67227 -1.79446 0.48223
C 15.57307 -3.19401 1.14630
C 14.67559 -2.79435 2.41661
C 15.06516 -1.32254 2.53779
C 13.18212 -2.87248 2.14685
C 16.97405 -3.74840 1.58437
C 16.99069 -5.23275 1.95609
H 18.17568 -6.01971 1.62596
N 15.58840 1.63468 3.16635
C 15.24029 0.68754 4.06247
C 15.22611 1.35823 5.37173
C 15.43341 2.81580 5.15438
C 15.37350 2.87774 3.70777
C 15.10865 0.61024 6.66793
C 15.63738 3.96573 6.09366
O 15.55900 5.18178 5.69630
C 15.83895 3.62741 7.51013
N 15.19064 3.34240 0.68993
C 15.03411 4.29047 1.63046
C 14.88350 5.65763 1.00710
C 15.21486 5.46098 -0.54503
C 15.42171 3.93059 -0.56771
C 13.50840 6.30845 1.15518
C 16.32410 6.36579 -1.14800
C 17.66617 6.00167 -0.55500
N 15.95417 1.02280 -0.91439
C 15.80216 1.94954 -1.96896
C 15.90180 1.19111 -3.23280
C 16.08330 -0.13821 -2.82235
C 16.07568 -0.20644 -1.40292
C 15.77588 1.73565 -4.54189
C 16.26896 -1.50070 -3.26714
O 16.44285 -2.04231 -4.35808
C 16.08803 -2.46869 -2.01948
C 17.23048 -3.44712 -2.02117
O 18.39697 -3.05706 -1.83743
O 16.73819 -4.69933 -2.02179
C 17.83317 -5.70568 -2.01239
H 14.37493 -1.17292 4.58017
H 15.02680 4.93967 3.47434
H 15.59829 3.82206 -2.67863
H 15.06394 -3.94356 0.55239
H 14.97994 -3.34362 3.30377
H 12.97043 -3.07056 1.10662
H 12.77984 -1.91112 2.43841
H 12.71719 -3.60745 2.81017
H 17.24609 -3.30914 2.55277
H 17.71250 -3.55640 0.83041
H 16.08157 -5.75038 1.62668
H 16.96794 -5.31801 3.04523
H 14.80382 -0.43094 6.50533
H 14.27306 1.05497 7.21916
H 16.01172 0.68034 7.27802
H 14.98093 3.06660 7.87311
H 16.05599 4.57411 8.00867
H 16.70639 2.96289 7.59110
H 15.59321 6.35676 1.43212
H 14.33979 5.66923 -1.17806
H 13.54506 7.29934 1.64597
H 12.86911 5.63345 1.70853
H 12.95685 6.43917 0.22572
H 16.14308 7.41149 -0.88743
H 16.38680 6.30963 -2.22962
H 17.67705 6.55465 0.38903
H 18.47398 6.32246 -1.20966
H 17.71239 4.93374 -0.31202
H 16.55765 1.28871 -5.14154
H 15.85389 2.82080 -4.53031
H 14.76734 1.39931 -4.79686
H 15.12321 -2.96569 -2.12764
H 17.67189 -6.36137 -2.87363
H 17.80068 -6.17317 -1.01031
H 18.84017 -5.35244 -2.20116

