%nproc=24
%mem=175gb
#p cam-b3lyp/Def2SVP td=(nstates=5)

TDDFT excited states in gaussian

0 1
Mg 7.88596 0.71246 0.58900
C 10.49712 -1.66239 -0.05982
C 10.20372 3.16793 0.10599
C 5.72755 2.80999 1.59352
C 6.10760 -1.86831 2.11305
N 10.03978 0.63696 0.09138
C 10.91016 -0.32028 -0.19232
C 12.27762 0.18980 -0.72091
C 12.24942 1.66181 -0.07959
C 10.73776 1.85763 0.01649
C 12.82849 1.71782 1.32428
C 12.32902 0.24693 -2.28811
C 13.72746 0.43885 -2.87912
H 14.04839 -0.22745 -4.13829
N 7.80132 2.68113 0.35288
C 8.83681 3.52079 0.14311
C 8.25151 4.86771 0.05697
C 6.80579 4.77356 0.39718
C 6.72491 3.39102 0.82396
C 9.03275 6.06698 -0.39562
C 5.68459 5.76735 0.35853
O 4.55842 5.53426 0.92442
C 5.97520 7.05904 -0.28066
N 6.26129 0.55673 1.87684
C 5.45360 1.60805 2.10108
C 4.20369 1.18842 2.83730
C 4.22772 -0.41061 2.84788
C 5.59209 -0.64773 2.16403
C 4.07047 1.70462 4.26984
C 2.97886 -1.13702 2.27746
C 2.87661 -0.89568 0.78861
N 8.12739 -1.42304 0.81121
C 7.27835 -2.30935 1.50955
C 7.91796 -3.64064 1.47791
C 9.11534 -3.42997 0.77764
C 9.22454 -2.05973 0.41707
C 7.41100 -4.82185 2.08935
C 10.31679 -4.05305 0.27070
O 10.73254 -5.20887 0.20012
C 11.32487 -2.91140 -0.18405
C 11.84998 -3.27125 -1.54688
O 11.08809 -3.30459 -2.52923
O 13.19449 -3.30337 -1.50667
C 13.76247 -3.64519 -2.83798
H 10.89605 4.00513 0.19903
H 4.90214 3.46941 1.87162
H 5.56992 -2.74491 2.48067
H 13.13842 -0.35803 -0.35666
H 12.68677 2.39444 -0.75289
H 13.05604 0.73354 1.70581
H 12.07343 2.19512 1.93511
H 13.69808 2.38086 1.34719
H 11.85222 1.17516 -2.62840
H 11.87217 -0.62403 -2.71630
H 14.51615 0.26058 -2.13808
H 13.84794 1.49029 -3.15110
H 10.10986 5.86031 -0.41819
H 8.91939 6.83332 0.37881
H 8.67454 6.46900 -1.34574
H 6.80759 7.53610 0.23120
H 5.02702 7.60010 -0.29053
H 6.30281 6.87426 -1.30981
H 3.31615 1.52309 2.31446
H 4.31438 -0.81007 3.86903
H 3.14265 2.28248 4.44104
H 4.94048 2.30579 4.49832
H 4.10970 0.93849 5.04231
H 2.06760 -0.72873 2.72137
H 2.97758 -2.20559 2.46489
H 2.38221 0.07859 0.72992
H 2.27801 -1.67122 0.31505
H 3.87021 -0.78880 0.33808
H 7.54350 -5.62361 1.37512
H 6.36613 -4.70716 2.37016
H 8.06600 -4.88609 2.96235
H 12.11999 -2.86071 0.56078
H 14.40750 -4.51775 -2.69566
H 14.24241 -2.71848 -3.20489
H 13.07885 -4.00894 -3.59613

