%nproc=24
%mem=175gb
#p cam-b3lyp/Def2SVP td=(nstates=5)

TDDFT excited states in gaussian

0 1
Mg 0.00000 0.00000 0.00000
C -0.21700 -2.21800 2.80100
C -1.25500 2.44200 2.02600
C -0.24500 1.85000 -2.56400
C 0.14600 -2.82400 -2.03700
N -0.61700 -0.00900 2.12600
C -0.59400 -0.90800 3.10500
C -0.93600 -0.30900 4.50200
C -1.77300 0.96400 4.03200
C -1.15500 1.16800 2.66000
C -3.26300 0.68500 3.86300
C 0.34500 0.11000 5.29900
C 0.12400 0.39700 6.78700
H 1.16800 0.03300 7.73300
N -0.18500 1.96100 -0.15200
C -0.70300 2.80000 0.77700
C -0.62000 4.15600 0.19300
C -0.18700 4.01500 -1.22500
C -0.21400 2.58300 -1.38000
C -0.88700 5.40600 0.97400
C 0.18100 5.01300 -2.27700
O 0.30300 4.69000 -3.50800
C 0.31000 6.41400 -1.83700
N -0.26500 -0.41300 -2.02900
C -0.27900 0.56900 -2.93700
C -0.19600 0.02400 -4.33200
C 0.12400 -1.53300 -4.18000
C 0.08600 -1.63200 -2.63500
C -1.45100 0.20500 -5.19700
C 1.37300 -2.07000 -4.92300
C 2.62600 -1.49000 -4.30600
N 0.15000 -2.14400 0.30300
C 0.17300 -3.13600 -0.68800
C 0.17300 -4.43800 0.00400
C 0.13300 -4.11100 1.35800
C 0.08300 -2.69500 1.50200
C 0.14900 -5.71500 -0.62300
C 0.09600 -4.62900 2.71600
O 0.20800 -5.74700 3.22100
C -0.25500 -3.42800 3.70100
C 0.71700 -3.48200 4.84800
O 1.93100 -3.25500 4.66900
O 0.03800 -3.55600 6.00300
C 0.94300 -3.58300 7.18300
H -1.85900 3.22000 2.49700
H -0.21800 2.45300 -3.47400
H 0.27600 -3.74700 -2.60500
H -1.55400 -0.94900 5.13200
H -1.58500 1.83100 4.66500
H -3.48400 -0.37700 3.96900
H -3.51100 1.02700 2.85800
H -3.85200 1.30100 4.54300
H 0.66900 1.09600 4.96600
H 1.13000 -0.63900 5.18900
H -0.84400 0.02600 7.12500
H 0.06200 1.47700 6.92100
H -1.34400 5.18600 1.93800
H -1.65100 5.96300 0.43200
H 0.00700 6.02000 1.08400
H -0.63500 6.74400 -1.40500
H 0.66500 6.97000 -2.70400
H 1.04800 6.46600 -1.03600
H 0.60800 0.50100 -4.89100
H -0.69200 -2.15600 -4.54700
H -1.26700 0.74000 -6.12900
H -2.20400 0.71400 -4.59600
H -1.96700 -0.72000 -5.45300
H 1.35600 -1.75900 -5.96700
H 1.45200 -3.15700 -4.90200
H 2.71400 -0.52200 -4.79800
H 3.48700 -2.12100 -4.52900
H 2.49500 -1.30300 -3.24000
H 0.86700 -6.33300 -0.08400
H 0.40400 -5.64200 -1.68000
H -0.89100 -5.99900 -0.46300
H -1.28300 -3.58100 4.02800
H 0.69800 -4.47800 7.75500
H 0.83300 -2.61900 7.68000
H 2.00000 -3.75400 6.97600
Mg 8.92617 0.80187 0.68511
C 9.10284 3.49575 3.04962
C 9.42325 -1.32913 3.30167
C 9.22534 -1.55387 -1.41927
C 9.58448 3.13812 -1.81574
N 9.21160 1.15755 2.84943
C 9.19825 2.21904 3.64153
C 9.21163 1.88984 5.15843
C 9.88306 0.43304 5.08242
C 9.45398 0.03951 3.67044
C 11.40164 0.46716 5.12808
C 7.76760 1.82563 5.76890
C 7.71582 1.81530 7.29827
H 6.61406 2.50664 7.96208
N 8.78507 -1.16274 0.92796
C 8.99848 -1.85966 2.06375
C 8.78761 -3.27299 1.71419
C 8.59377 -3.36814 0.24174
C 8.88767 -2.00465 -0.15147
C 8.70487 -4.36227 2.74377
C 8.21987 -4.50205 -0.66414
O 8.34130 -4.41507 -1.93714
C 7.79585 -5.74966 -0.01210
N 9.55216 0.75276 -1.29682
C 9.53712 -0.39422 -1.99835
C 9.76407 -0.13717 -3.46899
C 9.69359 1.45097 -3.64343
C 9.51925 1.86051 -2.16449
C 11.08537 -0.65329 -4.03837
C 8.68227 2.00020 -4.68663
C 7.26787 1.73377 -4.22418
N 9.09996 2.95249 0.57243
C 9.40608 3.72485 -0.56942
C 9.52673 5.12881 -0.12585
C 9.30338 5.07225 1.25814
C 9.08064 3.72531 1.65264
C 9.85513 6.23799 -0.95530
C 9.21590 5.84436 2.47669
O 9.23144 7.04438 2.74772
C 9.20743 4.84223 3.71041
C 8.09735 5.25595 4.63727
O 6.91005 5.17901 4.27532
O 8.60437 5.46633 5.86570
C 7.53977 5.86815 6.82330
H 9.79936 -2.06631 4.01159
H 9.23268 -2.31427 -2.20362
H 9.69106 3.93907 -2.55044
H 9.82344 2.55024 5.76121
H 9.44754 -0.24133 5.81516
H 11.78344 1.47637 5.08494
H 11.73460 -0.10036 4.26895
H 11.76464 -0.07456 6.00621
H 7.33389 0.83931 5.55955
H 7.15880 2.62439 5.39211
H 8.67515 2.10331 7.74513
H 7.56214 0.78664 7.63333
H 9.04979 -4.01490 3.72549
H 9.43173 -5.12973 2.45644
H 7.71336 -4.81693 2.79721
H 8.59262 -6.10748 0.63565
H 7.48436 -6.41167 -0.82241
H 6.93823 -5.53256 0.63441
H 8.98278 -0.59129 -4.06603
H 10.65649 1.86775 -3.97351
H 10.95234 -1.34740 -4.88960
H 11.63728 -1.13174 -3.24024
H 11.77878 0.11835 -4.36847
H 8.80059 1.47885 -5.63971
H 8.79772 3.06086 -4.88326
H 7.09382 0.70207 -4.54418
H 6.57227 2.41876 -4.70478
H 7.20082 1.75536 -3.13025
H 9.18929 7.04364 -0.67586
H 9.75784 5.98843 -2.00983
H 10.89730 6.39648 -0.66544
H 10.18528 4.90421 4.18952
H 7.85044 6.81977 7.26556
H 7.41640 5.00989 7.51026
H 6.57117 6.13112 6.41451

