%nproc=24
%mem=175gb
#p cam-b3lyp/Def2SVP td=(nstates=5)

TDDFT excited states in gaussian

0 1
Mg 0.00000 0.00000 0.00000
C -0.21700 -2.21800 2.80100
C -1.25500 2.44200 2.02600
C -0.24500 1.85000 -2.56400
C 0.14600 -2.82400 -2.03700
N -0.61700 -0.00900 2.12600
C -0.59400 -0.90800 3.10500
C -0.93600 -0.30900 4.50200
C -1.77300 0.96400 4.03200
C -1.15500 1.16800 2.66000
C -3.26300 0.68500 3.86300
C 0.34500 0.11000 5.29900
C 0.12400 0.39700 6.78700
H 1.16800 0.03300 7.73300
N -0.18500 1.96100 -0.15200
C -0.70300 2.80000 0.77700
C -0.62000 4.15600 0.19300
C -0.18700 4.01500 -1.22500
C -0.21400 2.58300 -1.38000
C -0.88700 5.40600 0.97400
C 0.18100 5.01300 -2.27700
O 0.30300 4.69000 -3.50800
C 0.31000 6.41400 -1.83700
N -0.26500 -0.41300 -2.02900
C -0.27900 0.56900 -2.93700
C -0.19600 0.02400 -4.33200
C 0.12400 -1.53300 -4.18000
C 0.08600 -1.63200 -2.63500
C -1.45100 0.20500 -5.19700
C 1.37300 -2.07000 -4.92300
C 2.62600 -1.49000 -4.30600
N 0.15000 -2.14400 0.30300
C 0.17300 -3.13600 -0.68800
C 0.17300 -4.43800 0.00400
C 0.13300 -4.11100 1.35800
C 0.08300 -2.69500 1.50200
C 0.14900 -5.71500 -0.62300
C 0.09600 -4.62900 2.71600
O 0.20800 -5.74700 3.22100
C -0.25500 -3.42800 3.70100
C 0.71700 -3.48200 4.84800
O 1.93100 -3.25500 4.66900
O 0.03800 -3.55600 6.00300
C 0.94300 -3.58300 7.18300
H -1.85900 3.22000 2.49700
H -0.21800 2.45300 -3.47400
H 0.27600 -3.74700 -2.60500
H -1.55400 -0.94900 5.13200
H -1.58500 1.83100 4.66500
H -3.48400 -0.37700 3.96900
H -3.51100 1.02700 2.85800
H -3.85200 1.30100 4.54300
H 0.66900 1.09600 4.96600
H 1.13000 -0.63900 5.18900
H -0.84400 0.02600 7.12500
H 0.06200 1.47700 6.92100
H -1.34400 5.18600 1.93800
H -1.65100 5.96300 0.43200
H 0.00700 6.02000 1.08400
H -0.63500 6.74400 -1.40500
H 0.66500 6.97000 -2.70400
H 1.04800 6.46600 -1.03600
H 0.60800 0.50100 -4.89100
H -0.69200 -2.15600 -4.54700
H -1.26700 0.74000 -6.12900
H -2.20400 0.71400 -4.59600
H -1.96700 -0.72000 -5.45300
H 1.35600 -1.75900 -5.96700
H 1.45200 -3.15700 -4.90200
H 2.71400 -0.52200 -4.79800
H 3.48700 -2.12100 -4.52900
H 2.49500 -1.30300 -3.24000
H 0.86700 -6.33300 -0.08400
H 0.40400 -5.64200 -1.68000
H -0.89100 -5.99900 -0.46300
H -1.28300 -3.58100 4.02800
H 0.69800 -4.47800 7.75500
H 0.83300 -2.61900 7.68000
H 2.00000 -3.75400 6.97600
Mg 8.94103 0.80833 0.68574
C 8.40686 -1.39664 3.46635
C 7.97471 3.36834 2.72221
C 8.96734 2.70800 -1.85552
C 8.75236 -1.98626 -1.38798
N 8.29796 0.85396 2.80155
C 8.19292 -0.03725 3.77574
C 7.91732 0.57107 5.17701
C 7.24636 1.95371 4.71119
C 7.90274 2.09392 3.33927
C 5.74275 1.85646 4.51359
C 9.23568 0.81800 5.99124
C 9.02704 1.11900 7.47705
H 10.01061 0.61854 8.43341
N 9.00887 2.78794 0.56278
C 8.59522 3.67556 1.49139
C 8.84075 5.00604 0.91370
C 9.28014 4.83095 -0.49732
C 9.07808 3.40534 -0.66136
C 8.73094 6.27261 1.71193
C 9.78498 5.79021 -1.53229
O 9.88265 5.45905 -2.76665
C 10.07311 7.15716 -1.07413
N 8.65974 0.45293 -1.34327
C 8.77609 1.44644 -2.24179
C 8.80591 0.90616 -3.65161
C 8.92921 -0.68118 -3.50088
C 8.85630 -0.79570 -1.96238
C 7.59267 1.24207 -4.51856
C 10.11114 -1.36843 -4.23804
C 11.42233 -0.95246 -3.61104
N 8.82174 -1.33074 0.96533
C 8.72563 -2.31826 -0.03949
C 8.55291 -3.61752 0.64208
C 8.53730 -3.29041 2.00636
C 8.66928 -1.88419 2.16321
C 8.38699 -4.87758 0.00112
C 8.42852 -3.81383 3.34908
O 8.38554 -4.94056 3.84138
C 8.21223 -2.59780 4.34951
C 9.15513 -2.77592 5.50784
O 10.38531 -2.71211 5.33701
O 8.45030 -2.77481 6.65395
C 9.34298 -2.93763 7.83227
H 7.47238 4.20739 3.20445
H 9.08160 3.30562 -2.76286
H 8.78423 -2.91554 -1.96078
H 7.22226 0.00778 5.78805
H 7.54089 2.77413 5.36043
H 5.38927 0.84019 4.60510
H 5.55178 2.23526 3.51806
H 5.22779 2.53612 5.19859
H 9.68351 1.76668 5.66844
H 9.91170 -0.00754 5.88124
H 8.01031 0.87502 7.80823
H 9.10591 2.19851 7.62684
H 8.22979 6.10055 2.67247
H 8.05175 6.93657 1.16630
H 9.69196 6.77592 1.83763
H 9.17262 7.59231 -0.64727
H 10.50743 7.66857 -1.93536
H 10.81181 7.10700 -0.26640
H 9.67015 1.27627 -4.18939
H 8.04276 -1.19815 -3.89684
H 7.85759 1.76876 -5.45477
H 6.90609 1.83558 -3.92957
H 6.97719 0.38988 -4.80165
H 10.14830 -1.04240 -5.28038
H 10.04693 -2.45141 -4.24146
H 11.63237 0.00749 -4.09215
H 12.19976 -1.68184 -3.82932
H 11.30311 -0.76416 -2.53774
H 9.00798 -5.58341 0.53654
H 8.65798 -4.82700 -1.05139
H 7.31329 -5.02807 0.14176
H 7.16833 -2.61485 4.66503
H 8.97634 -3.80249 8.39377
H 9.33488 -1.96034 8.35052
H 10.37080 -3.22649 7.64627

