%nproc=24
%mem=175gb
#p cam-b3lyp/Def2SVP td=(nstates=5)

TDDFT excited states in gaussian

0 1
Mg 8.93899 0.79897 0.68648
C 6.28308 0.60267 3.09204
C 10.75032 2.47004 3.04469
C 11.11810 1.38338 -1.54451
C 6.56376 0.15762 -1.78185
N 8.46901 1.39802 2.76314
C 7.45156 1.21500 3.59118
C 7.72988 1.64398 5.05681
C 8.89908 2.70886 4.77778
C 9.43593 2.14386 3.46430
C 8.38339 4.11449 4.51775
C 8.23764 0.45226 5.94225
C 8.23413 0.72309 7.44837
H 7.91585 -0.37830 8.35287
N 10.84152 1.33666 0.85915
C 11.41230 1.98806 1.89412
C 12.82592 2.16538 1.52752
C 13.00635 1.71194 0.12162
C 11.62806 1.47397 -0.25755
C 13.86481 2.64398 2.49968
C 14.21771 1.53549 -0.74307
O 14.12144 1.35798 -2.00879
C 15.52246 1.66983 -0.07894
N 8.82523 0.98547 -1.38103
C 9.93098 1.18778 -2.11880
C 9.64381 1.01372 -3.59109
C 8.16405 0.41260 -3.67205
C 7.80243 0.42733 -2.17058
C 9.72439 2.28285 -4.43916
C 7.98498 -0.91246 -4.46250
C 8.67791 -2.04362 -3.73744
N 6.84720 0.25987 0.64339
C 6.03997 0.06482 -0.49872
C 4.66206 -0.17374 -0.02239
C 4.75972 -0.07733 1.37391
C 6.09970 0.22162 1.74077
C 3.52238 -0.38972 -0.84737
C 4.03184 -0.14997 2.62036
O 2.88403 -0.45733 2.93939
C 4.96054 0.41213 3.78138
C 4.90297 -0.55532 4.93170
O 5.36016 -1.70580 4.81345
O 4.51856 0.10166 6.04118
C 4.45722 -0.81356 7.21183
H 11.31586 3.19699 3.62830
H 11.85189 1.46766 -2.34946
H 5.78489 -0.14731 -2.48403
H 6.89773 2.12733 5.55447
H 9.66249 2.66878 5.55041
H 7.30621 4.14169 4.44649
H 8.83233 4.42433 3.58313
H 8.76453 4.80247 5.27785
H 9.31452 0.31766 5.77807
H 7.68117 -0.44091 5.73441
H 7.64762 1.61344 7.70571
H 9.25159 0.97359 7.75828
H 13.40682 3.05676 3.40701
H 14.36701 3.49966 2.03549
H 14.60978 1.87947 2.73035
H 15.59593 2.65429 0.37703
H 16.26475 1.42241 -0.84029
H 15.57653 0.94033 0.73685
H 10.33415 0.30961 -4.03915
H 7.46946 1.10544 -4.16939
H 10.44123 2.20243 -5.27806
H 9.98709 3.10944 -3.79242
H 8.77902 2.61432 -4.86529
H 8.46017 -0.83540 -5.44353
H 6.94663 -1.17989 -4.62774
H 9.71747 -1.94619 -4.06441
H 8.25889 -3.00283 -4.03474
H 8.65746 -1.88684 -2.65271
H 2.96473 -1.20251 -0.40139
H 3.81039 -0.61889 -1.87123
H 3.03539 0.58577 -0.76650
H 4.58180 1.39744 4.05578
H 3.44779 -0.73399 7.62705
H 5.29668 -0.51601 7.86798
H 4.52361 -1.87806 7.01980

