%nproc=24
%mem=175gb
#p cam-b3lyp/Def2SVP td=(nstates=5)

TDDFT excited states in gaussian

0 1
Mg 0.00000 0.00000 0.00000
C -0.21700 -2.21800 2.80100
C -1.25500 2.44200 2.02600
C -0.24500 1.85000 -2.56400
C 0.14600 -2.82400 -2.03700
N -0.61700 -0.00900 2.12600
C -0.59400 -0.90800 3.10500
C -0.93600 -0.30900 4.50200
C -1.77300 0.96400 4.03200
C -1.15500 1.16800 2.66000
C -3.26300 0.68500 3.86300
C 0.34500 0.11000 5.29900
C 0.12400 0.39700 6.78700
H 1.16800 0.03300 7.73300
N -0.18500 1.96100 -0.15200
C -0.70300 2.80000 0.77700
C -0.62000 4.15600 0.19300
C -0.18700 4.01500 -1.22500
C -0.21400 2.58300 -1.38000
C -0.88700 5.40600 0.97400
C 0.18100 5.01300 -2.27700
O 0.30300 4.69000 -3.50800
C 0.31000 6.41400 -1.83700
N -0.26500 -0.41300 -2.02900
C -0.27900 0.56900 -2.93700
C -0.19600 0.02400 -4.33200
C 0.12400 -1.53300 -4.18000
C 0.08600 -1.63200 -2.63500
C -1.45100 0.20500 -5.19700
C 1.37300 -2.07000 -4.92300
C 2.62600 -1.49000 -4.30600
N 0.15000 -2.14400 0.30300
C 0.17300 -3.13600 -0.68800
C 0.17300 -4.43800 0.00400
C 0.13300 -4.11100 1.35800
C 0.08300 -2.69500 1.50200
C 0.14900 -5.71500 -0.62300
C 0.09600 -4.62900 2.71600
O 0.20800 -5.74700 3.22100
C -0.25500 -3.42800 3.70100
C 0.71700 -3.48200 4.84800
O 1.93100 -3.25500 4.66900
O 0.03800 -3.55600 6.00300
C 0.94300 -3.58300 7.18300
H -1.85900 3.22000 2.49700
H -0.21800 2.45300 -3.47400
H 0.27600 -3.74700 -2.60500
H -1.55400 -0.94900 5.13200
H -1.58500 1.83100 4.66500
H -3.48400 -0.37700 3.96900
H -3.51100 1.02700 2.85800
H -3.85200 1.30100 4.54300
H 0.66900 1.09600 4.96600
H 1.13000 -0.63900 5.18900
H -0.84400 0.02600 7.12500
H 0.06200 1.47700 6.92100
H -1.34400 5.18600 1.93800
H -1.65100 5.96300 0.43200
H 0.00700 6.02000 1.08400
H -0.63500 6.74400 -1.40500
H 0.66500 6.97000 -2.70400
H 1.04800 6.46600 -1.03600
H 0.60800 0.50100 -4.89100
H -0.69200 -2.15600 -4.54700
H -1.26700 0.74000 -6.12900
H -2.20400 0.71400 -4.59600
H -1.96700 -0.72000 -5.45300
H 1.35600 -1.75900 -5.96700
H 1.45200 -3.15700 -4.90200
H 2.71400 -0.52200 -4.79800
H 3.48700 -2.12100 -4.52900
H 2.49500 -1.30300 -3.24000
H 0.86700 -6.33300 -0.08400
H 0.40400 -5.64200 -1.68000
H -0.89100 -5.99900 -0.46300
H -1.28300 -3.58100 4.02800
H 0.69800 -4.47800 7.75500
H 0.83300 -2.61900 7.68000
H 2.00000 -3.75400 6.97600
Mg 31.53988 2.83780 2.40293
C 29.61175 1.28643 5.00189
C 32.11226 5.41017 4.56854
C 32.86172 4.43474 0.00085
C 29.90099 0.75827 0.13681
N 30.89260 3.18779 4.48878
C 30.21370 2.50006 5.39457
C 30.24529 3.10981 6.82173
C 30.54912 4.63585 6.42454
C 31.26152 4.40479 5.09347
C 29.29371 5.45008 6.15935
C 31.39378 2.50638 7.70425
C 31.29294 2.82598 9.19738
H 31.72264 1.81232 10.15671
N 32.76458 4.39935 2.41862
C 32.88331 5.33065 3.38808
C 33.90404 6.27771 2.91335
C 34.25936 5.92133 1.51283
C 33.27235 4.89501 1.24346
C 34.49967 7.33977 3.79122
C 35.30512 6.43016 0.56748
O 35.28031 6.14380 -0.68161
C 36.30558 7.34922 1.12953
N 31.25348 2.78011 0.34453
C 31.99594 3.54138 -0.47836
C 31.80663 3.13172 -1.91945
C 30.96411 1.77320 -1.87279
C 30.72521 1.67577 -0.35002
C 31.08861 4.14522 -2.81032
C 31.56857 0.54465 -2.60624
C 32.82417 0.08771 -1.89908
N 30.16864 1.17301 2.53033
C 29.58574 0.46401 1.45720
C 28.63442 -0.50401 2.04060
C 28.71352 -0.27337 3.42228
C 29.63317 0.77886 3.68028
C 27.80865 -1.40317 1.30864
C 28.22025 -0.67355 4.72044
O 27.48866 -1.57293 5.13230
C 28.68550 0.40421 5.79206
C 29.25660 -0.33163 6.97312
O 30.29888 -1.00014 6.85757
O 28.60457 0.04910 8.08679
C 29.14267 -0.64541 9.28677
H 32.16373 6.36849 5.08610
H 33.37097 4.87801 -0.85802
H 29.42375 0.00734 -0.49645
H 29.30942 3.04595 7.36381
H 31.22019 5.10409 7.13993
H 28.40585 4.83543 6.16654
H 29.43489 5.89946 5.18509
H 29.22663 6.28088 6.86759
H 32.33508 3.01806 7.46574
H 31.46303 1.44494 7.56578
H 30.30541 3.21822 9.46918
H 31.97866 3.64607 9.42381
H 33.92400 7.46643 4.71641
H 34.38124 8.29313 3.26496
H 35.56081 7.17544 3.99032
H 35.80307 8.21805 1.54794
H 37.01906 7.53275 0.32384
H 36.81274 6.84800 1.96151
H 32.76030 2.93763 -2.39480
H 29.97494 1.89099 -2.33917
H 31.67991 4.44330 -3.69666
H 30.83963 5.01067 -2.21071
H 30.11314 3.82915 -3.17604
H 31.86627 0.81839 -3.62143
H 30.88191 -0.29144 -2.68639
H 33.59189 0.75363 -2.30435
H 33.03956 -0.95253 -2.13475
H 32.75964 0.27650 -0.82119
H 27.85633 -2.35567 1.81948
H 28.13417 -1.48929 0.27404
H 26.84398 -0.89594 1.39457
H 27.81028 0.99610 6.06266
H 28.29850 -1.14476 9.77227
H 29.67124 0.13195 9.86992
H 29.81600 -1.47876 9.12368

