%nproc=24
%mem=175gb
#p cam-b3lyp/Def2SVP td=(nstates=5)

TDDFT excited states in gaussian

0 1
Mg 8.92420 0.80732 0.68039
C 7.13842 -2.00286 -0.65860
C 7.30574 2.74045 -1.61705
C 10.80492 3.21733 1.53022
C 11.18841 -1.46069 2.04976
N 7.43676 0.31671 -0.88136
C 6.78689 -0.77473 -1.25657
C 5.64326 -0.52395 -2.27576
C 6.17897 0.85332 -2.90424
C 6.99879 1.36009 -1.71944
C 7.11684 0.65236 -4.08295
C 4.25121 -0.33349 -1.57724
C 3.04598 -0.39285 -2.51833
H 1.80828 -0.99234 -2.02721
N 8.71068 2.76130 0.40660
C 7.99929 3.37422 -0.56269
C 8.17742 4.81756 -0.34091
C 9.18488 5.00551 0.73818
C 9.63098 3.63918 0.92321
C 7.37012 5.85740 -1.06230
C 9.67593 6.21650 1.47206
O 10.72684 6.17958 2.20489
C 8.94423 7.46916 1.23344
N 10.84654 0.88564 1.46831
C 11.41151 2.06059 1.79728
C 12.67616 1.85309 2.59603
C 12.71364 0.29251 2.94351
C 11.45496 -0.16795 2.17598
C 13.97664 2.25013 1.89783
C 12.84704 -0.09171 4.44260
C 11.59395 0.30359 5.19019
N 9.05294 -1.34129 0.86735
C 10.09976 -2.08519 1.45459
C 9.79200 -3.51407 1.24006
C 8.58965 -3.50175 0.51707
C 8.18767 -2.15964 0.27908
C 10.60280 -4.61018 1.64902
C 7.57464 -4.31882 -0.10811
O 7.33829 -5.52531 -0.15573
C 6.65569 -3.38361 -1.00661
C 5.21993 -3.71949 -0.70946
O 4.73836 -3.49641 0.41524
O 4.59669 -4.04384 -1.85695
C 3.16692 -4.37435 -1.61539
H 7.02646 3.39662 -2.44186
H 11.43531 4.01010 1.93960
H 11.79422 -2.23136 2.53115
H 5.55237 -1.27571 -3.05060
H 5.35962 1.53411 -3.12001
H 7.36235 -0.38898 -4.22949
H 8.00720 1.22196 -3.85088
H 6.69392 1.10762 -4.98307
H 4.16521 0.70317 -1.22698
H 4.12390 -1.04194 -0.78193
H 3.30946 -0.80493 -3.50002
H 2.72362 0.62866 -2.73420
H 6.82763 5.42677 -1.91298
H 8.08122 6.55463 -1.51846
H 6.70785 6.41382 -0.39562
H 8.97021 7.70607 0.17247
H 9.38688 8.20012 1.91288
H 7.89161 7.31489 1.49578
H 12.64732 2.41816 3.51960
H 13.57084 -0.20959 2.47135
H 14.56614 2.99561 2.46423
H 13.73417 2.62600 0.91270
H 14.64961 1.42497 1.67108
H 13.67027 0.45997 4.90314
H 13.03773 -1.14767 4.60253
H 11.76077 1.36257 5.40887
H 11.49421 -0.27736 6.10484
H 10.71169 0.23562 4.54316
H 9.93566 -5.35156 2.06827
H 11.35678 -4.29996 2.36947
H 11.04393 -4.89493 0.69007
H 6.91359 -3.57486 -2.04896
H 2.99658 -5.37467 -2.02531
H 2.58878 -3.54261 -2.06003
H 2.85060 -4.51020 -0.58780

