%nproc=24
%mem=175gb
#p cam-b3lyp/Def2SVP td=(nstates=5)

TDDFT excited states in gaussian

0 1
Mg 0.00000 0.00000 0.00000
C -0.21700 -2.21800 2.80100
C -1.25500 2.44200 2.02600
C -0.24500 1.85000 -2.56400
C 0.14600 -2.82400 -2.03700
N -0.61700 -0.00900 2.12600
C -0.59400 -0.90800 3.10500
C -0.93600 -0.30900 4.50200
C -1.77300 0.96400 4.03200
C -1.15500 1.16800 2.66000
C -3.26300 0.68500 3.86300
C 0.34500 0.11000 5.29900
C 0.12400 0.39700 6.78700
H 1.16800 0.03300 7.73300
N -0.18500 1.96100 -0.15200
C -0.70300 2.80000 0.77700
C -0.62000 4.15600 0.19300
C -0.18700 4.01500 -1.22500
C -0.21400 2.58300 -1.38000
C -0.88700 5.40600 0.97400
C 0.18100 5.01300 -2.27700
O 0.30300 4.69000 -3.50800
C 0.31000 6.41400 -1.83700
N -0.26500 -0.41300 -2.02900
C -0.27900 0.56900 -2.93700
C -0.19600 0.02400 -4.33200
C 0.12400 -1.53300 -4.18000
C 0.08600 -1.63200 -2.63500
C -1.45100 0.20500 -5.19700
C 1.37300 -2.07000 -4.92300
C 2.62600 -1.49000 -4.30600
N 0.15000 -2.14400 0.30300
C 0.17300 -3.13600 -0.68800
C 0.17300 -4.43800 0.00400
C 0.13300 -4.11100 1.35800
C 0.08300 -2.69500 1.50200
C 0.14900 -5.71500 -0.62300
C 0.09600 -4.62900 2.71600
O 0.20800 -5.74700 3.22100
C -0.25500 -3.42800 3.70100
C 0.71700 -3.48200 4.84800
O 1.93100 -3.25500 4.66900
O 0.03800 -3.55600 6.00300
C 0.94300 -3.58300 7.18300
H -1.85900 3.22000 2.49700
H -0.21800 2.45300 -3.47400
H 0.27600 -3.74700 -2.60500
H -1.55400 -0.94900 5.13200
H -1.58500 1.83100 4.66500
H -3.48400 -0.37700 3.96900
H -3.51100 1.02700 2.85800
H -3.85200 1.30100 4.54300
H 0.66900 1.09600 4.96600
H 1.13000 -0.63900 5.18900
H -0.84400 0.02600 7.12500
H 0.06200 1.47700 6.92100
H -1.34400 5.18600 1.93800
H -1.65100 5.96300 0.43200
H 0.00700 6.02000 1.08400
H -0.63500 6.74400 -1.40500
H 0.66500 6.97000 -2.70400
H 1.04800 6.46600 -1.03600
H 0.60800 0.50100 -4.89100
H -0.69200 -2.15600 -4.54700
H -1.26700 0.74000 -6.12900
H -2.20400 0.71400 -4.59600
H -1.96700 -0.72000 -5.45300
H 1.35600 -1.75900 -5.96700
H 1.45200 -3.15700 -4.90200
H 2.71400 -0.52200 -4.79800
H 3.48700 -2.12100 -4.52900
H 2.49500 -1.30300 -3.24000
H 0.86700 -6.33300 -0.08400
H 0.40400 -5.64200 -1.68000
H -0.89100 -5.99900 -0.46300
H -1.28300 -3.58100 4.02800
H 0.69800 -4.47800 7.75500
H 0.83300 -2.61900 7.68000
H 2.00000 -3.75400 6.97600
Mg 31.53898 2.84705 2.39705
C 31.01565 3.39444 5.90497
C 30.40867 6.02427 1.88487
C 31.56075 2.24637 -0.71842
C 31.52656 -0.57234 3.07032
N 30.83319 4.40970 3.79428
C 30.73676 4.52579 5.11017
C 30.39551 5.95650 5.60634
C 29.68180 6.50795 4.27766
C 30.37153 5.62060 3.24347
C 28.18990 6.22232 4.23312
C 31.67824 6.78928 5.95720
C 31.41412 8.07931 6.73682
H 32.38925 8.49850 7.73975
N 31.52844 4.08944 0.84949
C 31.05155 5.35163 0.82252
C 31.25857 5.83062 -0.55294
C 31.74577 4.69184 -1.37788
C 31.60771 3.60289 -0.43172
C 31.07327 7.26604 -0.95125
C 32.24044 4.59628 -2.78939
O 32.38766 3.46635 -3.37625
C 32.45833 5.86746 -3.49518
N 31.33188 1.09480 1.29748
C 31.43317 1.10392 -0.04326
C 31.52639 -0.29954 -0.59281
C 31.71079 -1.24844 0.68123
C 31.59787 -0.19191 1.80212
C 30.32607 -0.77453 -1.41135
C 32.94111 -2.19659 0.68040
C 34.21514 -1.38898 0.78033
N 31.50016 1.61075 4.16851
C 31.47430 0.19994 4.22368
C 31.33567 -0.17770 5.64516
C 31.26680 1.04958 6.32155
C 31.33589 2.11674 5.38566
C 31.24076 -1.50614 6.14752
C 31.14068 1.68495 7.61349
O 31.13001 1.28974 8.77858
C 30.84521 3.23061 7.38981
C 31.76052 4.01361 8.29072
O 32.99147 3.99098 8.11504
O 31.02314 4.82661 9.06896
C 31.88708 5.63218 9.97257
H 29.85823 6.91955 1.59441
H 31.67658 1.98290 -1.77229
H 31.61352 -1.61840 3.37176
H 29.70683 5.99536 6.44179
H 29.92310 7.55351 4.10460
H 27.87623 5.58976 5.05020
H 28.01251 5.73159 3.28509
H 27.62753 7.15975 4.19712
H 32.09567 7.21014 5.03342
H 32.39075 6.18676 6.48628
H 30.39913 8.10997 7.15131
H 31.44387 8.91914 6.03838
H 30.55188 7.83562 -0.17206
H 30.38338 7.27530 -1.80204
H 32.00857 7.74453 -1.24945
H 31.52855 6.43081 -3.51983
H 32.89604 5.59596 -4.45777
H 33.17461 6.46722 -2.92260
H 32.38989 -0.40568 -1.23795
H 30.85839 -1.93216 0.80683
H 30.59615 -1.09956 -2.43385
H 29.59867 0.02559 -1.44637
H 29.75488 -1.58667 -0.96485
H 32.99512 -2.74609 -0.26261
H 32.92187 -2.92984 1.47976
H 34.39924 -1.08928 -0.25571
H 35.02811 -2.00191 1.16430
H 34.05701 -0.47511 1.36470
H 31.87454 -1.55393 7.02304
H 31.53999 -2.23666 5.39881
H 30.17056 -1.55631 6.36527
H 29.79416 3.40079 7.62623
H 31.54031 5.44805 10.99411
H 31.82347 6.67136 9.59866
H 32.93095 5.35141 10.04973

