%nproc=24
%mem=175gb
#p cam-b3lyp/Def2SVP td=(nstates=5)

TDDFT excited states in gaussian

0 1
Mg 0.00000 0.00000 0.00000
C -0.21700 -2.21800 2.80100
C -1.25500 2.44200 2.02600
C -0.24500 1.85000 -2.56400
C 0.14600 -2.82400 -2.03700
N -0.61700 -0.00900 2.12600
C -0.59400 -0.90800 3.10500
C -0.93600 -0.30900 4.50200
C -1.77300 0.96400 4.03200
C -1.15500 1.16800 2.66000
C -3.26300 0.68500 3.86300
C 0.34500 0.11000 5.29900
C 0.12400 0.39700 6.78700
H 1.16800 0.03300 7.73300
N -0.18500 1.96100 -0.15200
C -0.70300 2.80000 0.77700
C -0.62000 4.15600 0.19300
C -0.18700 4.01500 -1.22500
C -0.21400 2.58300 -1.38000
C -0.88700 5.40600 0.97400
C 0.18100 5.01300 -2.27700
O 0.30300 4.69000 -3.50800
C 0.31000 6.41400 -1.83700
N -0.26500 -0.41300 -2.02900
C -0.27900 0.56900 -2.93700
C -0.19600 0.02400 -4.33200
C 0.12400 -1.53300 -4.18000
C 0.08600 -1.63200 -2.63500
C -1.45100 0.20500 -5.19700
C 1.37300 -2.07000 -4.92300
C 2.62600 -1.49000 -4.30600
N 0.15000 -2.14400 0.30300
C 0.17300 -3.13600 -0.68800
C 0.17300 -4.43800 0.00400
C 0.13300 -4.11100 1.35800
C 0.08300 -2.69500 1.50200
C 0.14900 -5.71500 -0.62300
C 0.09600 -4.62900 2.71600
O 0.20800 -5.74700 3.22100
C -0.25500 -3.42800 3.70100
C 0.71700 -3.48200 4.84800
O 1.93100 -3.25500 4.66900
O 0.03800 -3.55600 6.00300
C 0.94300 -3.58300 7.18300
H -1.85900 3.22000 2.49700
H -0.21800 2.45300 -3.47400
H 0.27600 -3.74700 -2.60500
H -1.55400 -0.94900 5.13200
H -1.58500 1.83100 4.66500
H -3.48400 -0.37700 3.96900
H -3.51100 1.02700 2.85800
H -3.85200 1.30100 4.54300
H 0.66900 1.09600 4.96600
H 1.13000 -0.63900 5.18900
H -0.84400 0.02600 7.12500
H 0.06200 1.47700 6.92100
H -1.34400 5.18600 1.93800
H -1.65100 5.96300 0.43200
H 0.00700 6.02000 1.08400
H -0.63500 6.74400 -1.40500
H 0.66500 6.97000 -2.70400
H 1.04800 6.46600 -1.03600
H 0.60800 0.50100 -4.89100
H -0.69200 -2.15600 -4.54700
H -1.26700 0.74000 -6.12900
H -2.20400 0.71400 -4.59600
H -1.96700 -0.72000 -5.45300
H 1.35600 -1.75900 -5.96700
H 1.45200 -3.15700 -4.90200
H 2.71400 -0.52200 -4.79800
H 3.48700 -2.12100 -4.52900
H 2.49500 -1.30300 -3.24000
H 0.86700 -6.33300 -0.08400
H 0.40400 -5.64200 -1.68000
H -0.89100 -5.99900 -0.46300
H -1.28300 -3.58100 4.02800
H 0.69800 -4.47800 7.75500
H 0.83300 -2.61900 7.68000
H 2.00000 -3.75400 6.97600
Mg 31.53761 2.84530 2.40200
C 31.93855 0.70609 5.25544
C 29.75572 4.94554 4.41408
C 30.78480 4.52307 -0.18369
C 32.33215 0.10062 0.40672
N 30.98664 2.73159 4.54111
C 31.24720 1.90206 5.54027
C 30.80847 2.41914 6.93659
C 29.66086 3.43899 6.46567
C 30.17781 3.75857 5.06449
C 28.29420 2.78774 6.33354
C 31.96621 3.16475 7.68873
C 31.70568 3.42417 9.17418
H 32.83262 3.35763 10.10049
N 30.86610 4.70471 2.22810
C 30.18191 5.41246 3.15127
C 29.90152 6.71688 2.53156
C 30.33215 6.66219 1.10809
C 30.66588 5.25715 0.98744
C 29.35576 7.88355 3.30257
C 30.41601 7.69976 0.02984
O 30.59213 7.38105 -1.19908
C 30.19268 9.09320 0.44209
N 31.34693 2.33433 0.39579
C 31.06137 3.26594 -0.53076
C 31.24642 2.72129 -1.92700
C 31.95148 1.29772 -1.74291
C 31.97200 1.22307 -0.20038
C 29.96956 2.55385 -2.75039
C 33.28105 1.06615 -2.51187
C 34.36414 1.95903 -1.95057
N 32.22488 0.82476 2.73839
C 32.47018 -0.16631 1.76285
C 32.80977 -1.41097 2.48251
C 32.71527 -1.06088 3.83786
C 32.32338 0.30010 3.95474
C 33.10171 -2.66708 1.87995
C 32.84757 -1.53605 5.19632
O 33.23833 -2.57990 5.71731
C 32.22760 -0.44782 6.17498
C 33.20380 -0.22218 7.29687
O 34.31782 0.28334 7.07325
O 32.58292 -0.43691 8.47108
C 33.50742 -0.21478 9.61466
H 28.99376 5.55853 4.89631
H 30.64319 5.08578 -1.10931
H 32.68772 -0.77280 -0.14408
H 30.38906 1.66329 7.58971
H 29.65095 4.33431 7.08184
H 28.34379 1.71698 6.46449
H 27.94722 3.03147 5.33792
H 27.58541 3.25573 7.02269
H 32.02231 4.19862 7.32446
H 32.89565 2.64240 7.57071
H 30.86123 2.83593 9.55344
H 31.38486 4.46181 9.29418
H 28.98248 7.57584 4.28714
H 28.46345 8.22966 2.76980
H 30.06636 8.70961 3.37567
H 29.20833 9.18231 0.89550
H 30.38157 9.69536 -0.44875
H 30.92148 9.34922 1.21922
H 31.89649 3.36273 -2.50931
H 31.30711 0.47612 -2.08874
H 29.99322 3.10500 -3.70943
H 29.13029 2.87499 -2.14786
H 29.70402 1.52483 -2.98665
H 33.16407 1.34304 -3.56249
H 33.62114 0.03626 -2.48620
H 34.19047 2.90984 -2.46329
H 35.34904 1.55923 -2.18332
H 34.21594 2.13096 -0.87812
H 33.95511 -3.07389 2.40598
H 33.30331 -2.56044 0.81611
H 32.16414 -3.19669 2.06899
H 31.27367 -0.83584 6.53419
H 33.50293 -1.13181 10.21192
H 33.15457 0.70992 10.10882
H 34.56323 -0.11195 9.39295

