%nproc=24
%mem=175gb
#p cam-b3lyp/Def2SVP td=(nstates=5)

TDDFT excited states in gaussian

0 1
Mg 0.00000 0.00000 0.00000
C -0.21700 -2.21800 2.80100
C -1.25500 2.44200 2.02600
C -0.24500 1.85000 -2.56400
C 0.14600 -2.82400 -2.03700
N -0.61700 -0.00900 2.12600
C -0.59400 -0.90800 3.10500
C -0.93600 -0.30900 4.50200
C -1.77300 0.96400 4.03200
C -1.15500 1.16800 2.66000
C -3.26300 0.68500 3.86300
C 0.34500 0.11000 5.29900
C 0.12400 0.39700 6.78700
H 1.16800 0.03300 7.73300
N -0.18500 1.96100 -0.15200
C -0.70300 2.80000 0.77700
C -0.62000 4.15600 0.19300
C -0.18700 4.01500 -1.22500
C -0.21400 2.58300 -1.38000
C -0.88700 5.40600 0.97400
C 0.18100 5.01300 -2.27700
O 0.30300 4.69000 -3.50800
C 0.31000 6.41400 -1.83700
N -0.26500 -0.41300 -2.02900
C -0.27900 0.56900 -2.93700
C -0.19600 0.02400 -4.33200
C 0.12400 -1.53300 -4.18000
C 0.08600 -1.63200 -2.63500
C -1.45100 0.20500 -5.19700
C 1.37300 -2.07000 -4.92300
C 2.62600 -1.49000 -4.30600
N 0.15000 -2.14400 0.30300
C 0.17300 -3.13600 -0.68800
C 0.17300 -4.43800 0.00400
C 0.13300 -4.11100 1.35800
C 0.08300 -2.69500 1.50200
C 0.14900 -5.71500 -0.62300
C 0.09600 -4.62900 2.71600
O 0.20800 -5.74700 3.22100
C -0.25500 -3.42800 3.70100
C 0.71700 -3.48200 4.84800
O 1.93100 -3.25500 4.66900
O 0.03800 -3.55600 6.00300
C 0.94300 -3.58300 7.18300
H -1.85900 3.22000 2.49700
H -0.21800 2.45300 -3.47400
H 0.27600 -3.74700 -2.60500
H -1.55400 -0.94900 5.13200
H -1.58500 1.83100 4.66500
H -3.48400 -0.37700 3.96900
H -3.51100 1.02700 2.85800
H -3.85200 1.30100 4.54300
H 0.66900 1.09600 4.96600
H 1.13000 -0.63900 5.18900
H -0.84400 0.02600 7.12500
H 0.06200 1.47700 6.92100
H -1.34400 5.18600 1.93800
H -1.65100 5.96300 0.43200
H 0.00700 6.02000 1.08400
H -0.63500 6.74400 -1.40500
H 0.66500 6.97000 -2.70400
H 1.04800 6.46600 -1.03600
H 0.60800 0.50100 -4.89100
H -0.69200 -2.15600 -4.54700
H -1.26700 0.74000 -6.12900
H -2.20400 0.71400 -4.59600
H -1.96700 -0.72000 -5.45300
H 1.35600 -1.75900 -5.96700
H 1.45200 -3.15700 -4.90200
H 2.71400 -0.52200 -4.79800
H 3.48700 -2.12100 -4.52900
H 2.49500 -1.30300 -3.24000
H 0.86700 -6.33300 -0.08400
H 0.40400 -5.64200 -1.68000
H -0.89100 -5.99900 -0.46300
H -1.28300 -3.58100 4.02800
H 0.69800 -4.47800 7.75500
H 0.83300 -2.61900 7.68000
H 2.00000 -3.75400 6.97600
Mg 8.94147 0.80964 0.67306
C 8.34622 4.16408 1.80112
C 8.19960 1.89557 -2.47416
C 9.01734 -2.21538 -0.28137
C 8.51508 -0.22763 3.97275
N 8.36305 2.79620 -0.10878
C 8.22879 4.01003 0.40401
C 8.03271 5.13456 -0.64792
C 7.43884 4.24348 -1.84465
C 8.06361 2.89811 -1.48092
C 5.92709 4.09754 -1.79336
C 9.38680 5.81457 -1.05541
C 9.24020 7.11970 -1.84084
H 10.21643 8.18183 -1.61423
N 9.13262 0.04159 -1.14687
C 8.80331 0.62867 -2.31656
C 9.11715 -0.35613 -3.36338
C 9.50413 -1.63341 -2.70495
C 9.20647 -1.31793 -1.32222
C 9.11154 -0.01863 -4.82608
C 10.03983 -2.92931 -3.23396
O 10.08094 -3.98644 -2.51033
C 10.42796 -2.94825 -4.65187
N 8.58041 -0.98770 1.65364
C 8.73466 -2.16380 1.02046
C 8.68969 -3.31740 1.99390
C 8.71516 -2.65333 3.44853
C 8.67881 -1.16247 3.04677
C 7.47634 -4.23962 1.87692
C 9.82914 -3.13000 4.42038
C 11.18160 -2.68237 3.91454
N 8.69322 1.77837 2.58826
C 8.50545 1.15514 3.84142
C 8.26919 2.22733 4.82985
C 8.31338 3.40800 4.07317
C 8.53969 3.09252 2.70615
C 8.00465 2.03777 6.21556
C 8.20946 4.84879 4.11833
O 8.10831 5.68474 5.01537
C 8.10012 5.39447 2.62948
C 9.06220 6.54145 2.48334
O 10.28859 6.35208 2.56526
O 8.39175 7.62737 2.05714
C 9.30527 8.78848 1.88652
H 7.76604 2.07767 -3.45790
H 9.14385 -3.26950 -0.53884
H 8.47099 -0.46283 5.03831
H 7.32060 5.90093 -0.36623
H 7.80372 4.58482 -2.80990
H 5.51189 4.52047 -0.89065
H 5.73258 3.03391 -1.83709
H 5.47646 4.52361 -2.69432
H 9.88520 5.19495 -1.81198
H 10.00508 5.97853 -0.19432
H 8.21974 7.51856 -1.79069
H 9.39238 6.90538 -2.90146
H 8.62789 0.94789 -5.01403
H 8.46110 -0.74848 -5.32015
H 10.10604 -0.07111 -5.27428
H 9.56972 -2.68323 -5.26478
H 10.86953 -3.93229 -4.82086
H 11.18457 -2.17327 -4.81787
H 9.56026 -3.95198 1.88201
H 7.78648 -2.85198 4.00344
H 7.74778 -5.29852 1.70629
H 6.84627 -3.87487 1.07661
H 6.79967 -4.22291 2.72959
H 9.85751 -4.22177 4.45766
H 9.69554 -2.77640 5.43729
H 11.43903 -3.45382 3.18264
H 11.90414 -2.65289 4.72763
H 11.10526 -1.73018 3.37682
H 8.59405 2.77210 6.74835
H 8.24831 1.02572 6.53203
H 6.92794 2.22627 6.23614
H 7.06667 5.70401 2.46909
H 8.90002 9.60544 2.49153
H 9.37461 8.95623 0.79528
H 10.30675 8.70202 2.29152

