%nproc=24
%mem=175gb
#p cam-b3lyp/Def2SVP td=(nstates=5)

TDDFT excited states in gaussian

0 1
Mg 0.00000 0.00000 0.00000
C -0.21700 -2.21800 2.80100
C -1.25500 2.44200 2.02600
C -0.24500 1.85000 -2.56400
C 0.14600 -2.82400 -2.03700
N -0.61700 -0.00900 2.12600
C -0.59400 -0.90800 3.10500
C -0.93600 -0.30900 4.50200
C -1.77300 0.96400 4.03200
C -1.15500 1.16800 2.66000
C -3.26300 0.68500 3.86300
C 0.34500 0.11000 5.29900
C 0.12400 0.39700 6.78700
H 1.16800 0.03300 7.73300
N -0.18500 1.96100 -0.15200
C -0.70300 2.80000 0.77700
C -0.62000 4.15600 0.19300
C -0.18700 4.01500 -1.22500
C -0.21400 2.58300 -1.38000
C -0.88700 5.40600 0.97400
C 0.18100 5.01300 -2.27700
O 0.30300 4.69000 -3.50800
C 0.31000 6.41400 -1.83700
N -0.26500 -0.41300 -2.02900
C -0.27900 0.56900 -2.93700
C -0.19600 0.02400 -4.33200
C 0.12400 -1.53300 -4.18000
C 0.08600 -1.63200 -2.63500
C -1.45100 0.20500 -5.19700
C 1.37300 -2.07000 -4.92300
C 2.62600 -1.49000 -4.30600
N 0.15000 -2.14400 0.30300
C 0.17300 -3.13600 -0.68800
C 0.17300 -4.43800 0.00400
C 0.13300 -4.11100 1.35800
C 0.08300 -2.69500 1.50200
C 0.14900 -5.71500 -0.62300
C 0.09600 -4.62900 2.71600
O 0.20800 -5.74700 3.22100
C -0.25500 -3.42800 3.70100
C 0.71700 -3.48200 4.84800
O 1.93100 -3.25500 4.66900
O 0.03800 -3.55600 6.00300
C 0.94300 -3.58300 7.18300
H -1.85900 3.22000 2.49700
H -0.21800 2.45300 -3.47400
H 0.27600 -3.74700 -2.60500
H -1.55400 -0.94900 5.13200
H -1.58500 1.83100 4.66500
H -3.48400 -0.37700 3.96900
H -3.51100 1.02700 2.85800
H -3.85200 1.30100 4.54300
H 0.66900 1.09600 4.96600
H 1.13000 -0.63900 5.18900
H -0.84400 0.02600 7.12500
H 0.06200 1.47700 6.92100
H -1.34400 5.18600 1.93800
H -1.65100 5.96300 0.43200
H 0.00700 6.02000 1.08400
H -0.63500 6.74400 -1.40500
H 0.66500 6.97000 -2.70400
H 1.04800 6.46600 -1.03600
H 0.60800 0.50100 -4.89100
H -0.69200 -2.15600 -4.54700
H -1.26700 0.74000 -6.12900
H -2.20400 0.71400 -4.59600
H -1.96700 -0.72000 -5.45300
H 1.35600 -1.75900 -5.96700
H 1.45200 -3.15700 -4.90200
H 2.71400 -0.52200 -4.79800
H 3.48700 -2.12100 -4.52900
H 2.49500 -1.30300 -3.24000
H 0.86700 -6.33300 -0.08400
H 0.40400 -5.64200 -1.68000
H -0.89100 -5.99900 -0.46300
H -1.28300 -3.58100 4.02800
H 0.69800 -4.47800 7.75500
H 0.83300 -2.61900 7.68000
H 2.00000 -3.75400 6.97600
Mg 7.88970 0.71095 0.60706
C 7.87452 -2.59809 1.99598
C 6.68006 1.81152 3.60040
C 7.46543 3.55954 -0.72447
C 7.99311 -0.76418 -2.54873
N 7.38418 -0.35206 2.47968
C 7.47780 -1.60083 2.91114
C 7.20385 -1.77927 4.42859
C 6.30306 -0.47114 4.66579
C 6.84134 0.40442 3.53604
C 4.82191 -0.70809 4.42215
C 8.51919 -1.73358 5.28287
C 8.36318 -2.20727 6.72961
H 9.47040 -2.93101 7.34826
N 7.64941 2.49559 1.44127
C 7.16674 2.75944 2.67362
C 7.17071 4.22493 2.80199
C 7.54011 4.81021 1.48453
C 7.54582 3.61904 0.65920
C 6.92210 4.92833 4.10462
C 7.82666 6.21196 1.03824
O 7.89391 6.52283 -0.20340
C 7.93360 7.22772 2.09573
N 7.53582 1.31347 -1.35102
C 7.44274 2.61706 -1.66710
C 7.46342 2.81833 -3.16358
C 7.83471 1.39179 -3.78384
C 7.87879 0.55536 -2.48622
C 6.16025 3.31977 -3.78543
C 9.05722 1.33695 -4.74048
C 10.32793 1.61623 -3.97062
N 8.11338 -1.29413 -0.16602
C 8.10344 -1.69197 -1.52090
C 8.17323 -3.16748 -1.54192
C 8.19589 -3.52969 -0.18664
C 8.12352 -2.36338 0.62206
C 8.15897 -3.98445 -2.70746
C 8.25385 -4.63405 0.74380
O 8.41339 -5.84962 0.64038
C 7.92080 -4.08719 2.19858
C 8.95213 -4.63345 3.14752
O 10.14500 -4.29649 3.04690
O 8.33021 -5.28801 4.14509
C 9.31097 -5.83865 5.11809
H 6.08862 2.22920 4.41566
H 7.42957 4.52387 -1.23659
H 8.12832 -1.29429 -3.49391
H 6.64259 -2.66912 4.68731
H 6.51119 -0.01805 5.63158
H 4.63275 -1.68976 4.01386
H 4.51239 0.05827 3.72362
H 4.25511 -0.52619 5.33975
H 8.79680 -0.68604 5.45706
H 9.30380 -2.28663 4.80418
H 7.41839 -2.74105 6.88895
H 8.28736 -1.32945 7.37590
H 6.51538 4.24447 4.85982
H 6.11674 5.64991 3.92976
H 7.80202 5.46237 4.46959
H 7.00692 7.25639 2.66397
H 8.22945 8.14792 1.58820
H 8.72165 6.92425 2.79393
H 8.22547 3.53389 -3.44705
H 7.01306 0.98551 -4.39184
H 6.28189 4.26087 -4.35431
H 5.43104 3.44422 -2.99594
H 5.66382 2.61407 -4.44931
H 8.97773 2.11695 -5.50168
H 9.15741 0.38952 -5.25944
H 10.35912 2.70929 -3.93404
H 11.19108 1.21414 -4.49723
H 10.25070 1.25395 -2.93890
H 8.91259 -4.74702 -2.56239
H 8.35112 -3.40014 -3.60492
H 7.13162 -4.35670 -2.67215
H 6.91389 -4.42138 2.45162
H 9.11609 -6.91280 5.19498
H 9.18846 -5.23733 6.03850
H 10.35658 -5.83326 4.83326

