%nproc=24
%mem=175gb
#p cam-b3lyp/Def2SVP td=(nstates=5)

TDDFT excited states in gaussian

0 1
Mg 0.00000 0.00000 0.00000
C -0.21700 -2.21800 2.80100
C -1.25500 2.44200 2.02600
C -0.24500 1.85000 -2.56400
C 0.14600 -2.82400 -2.03700
N -0.61700 -0.00900 2.12600
C -0.59400 -0.90800 3.10500
C -0.93600 -0.30900 4.50200
C -1.77300 0.96400 4.03200
C -1.15500 1.16800 2.66000
C -3.26300 0.68500 3.86300
C 0.34500 0.11000 5.29900
C 0.12400 0.39700 6.78700
H 1.16800 0.03300 7.73300
N -0.18500 1.96100 -0.15200
C -0.70300 2.80000 0.77700
C -0.62000 4.15600 0.19300
C -0.18700 4.01500 -1.22500
C -0.21400 2.58300 -1.38000
C -0.88700 5.40600 0.97400
C 0.18100 5.01300 -2.27700
O 0.30300 4.69000 -3.50800
C 0.31000 6.41400 -1.83700
N -0.26500 -0.41300 -2.02900
C -0.27900 0.56900 -2.93700
C -0.19600 0.02400 -4.33200
C 0.12400 -1.53300 -4.18000
C 0.08600 -1.63200 -2.63500
C -1.45100 0.20500 -5.19700
C 1.37300 -2.07000 -4.92300
C 2.62600 -1.49000 -4.30600
N 0.15000 -2.14400 0.30300
C 0.17300 -3.13600 -0.68800
C 0.17300 -4.43800 0.00400
C 0.13300 -4.11100 1.35800
C 0.08300 -2.69500 1.50200
C 0.14900 -5.71500 -0.62300
C 0.09600 -4.62900 2.71600
O 0.20800 -5.74700 3.22100
C -0.25500 -3.42800 3.70100
C 0.71700 -3.48200 4.84800
O 1.93100 -3.25500 4.66900
O 0.03800 -3.55600 6.00300
C 0.94300 -3.58300 7.18300
H -1.85900 3.22000 2.49700
H -0.21800 2.45300 -3.47400
H 0.27600 -3.74700 -2.60500
H -1.55400 -0.94900 5.13200
H -1.58500 1.83100 4.66500
H -3.48400 -0.37700 3.96900
H -3.51100 1.02700 2.85800
H -3.85200 1.30100 4.54300
H 0.66900 1.09600 4.96600
H 1.13000 -0.63900 5.18900
H -0.84400 0.02600 7.12500
H 0.06200 1.47700 6.92100
H -1.34400 5.18600 1.93800
H -1.65100 5.96300 0.43200
H 0.00700 6.02000 1.08400
H -0.63500 6.74400 -1.40500
H 0.66500 6.97000 -2.70400
H 1.04800 6.46600 -1.03600
H 0.60800 0.50100 -4.89100
H -0.69200 -2.15600 -4.54700
H -1.26700 0.74000 -6.12900
H -2.20400 0.71400 -4.59600
H -1.96700 -0.72000 -5.45300
H 1.35600 -1.75900 -5.96700
H 1.45200 -3.15700 -4.90200
H 2.71400 -0.52200 -4.79800
H 3.48700 -2.12100 -4.52900
H 2.49500 -1.30300 -3.24000
H 0.86700 -6.33300 -0.08400
H 0.40400 -5.64200 -1.68000
H -0.89100 -5.99900 -0.46300
H -1.28300 -3.58100 4.02800
H 0.69800 -4.47800 7.75500
H 0.83300 -2.61900 7.68000
H 2.00000 -3.75400 6.97600
Mg 7.88943 0.71608 0.60448
C 7.56392 -0.73120 3.87228
C 6.64593 3.60538 1.92369
C 7.73954 1.88064 -2.34319
C 8.00886 -2.52629 -0.66769
N 7.22763 1.24519 2.64760
C 7.20756 0.63258 3.82176
C 6.85876 1.55338 5.02177
C 6.05185 2.69080 4.22550
C 6.70147 2.53523 2.85202
C 4.56813 2.39214 4.08870
C 8.13760 2.13741 5.71853
C 7.88658 2.79203 7.07876
H 8.90882 2.66130 8.11336
N 7.75254 2.59152 -0.03001
C 7.24138 3.64322 0.64371
C 7.35232 4.79519 -0.26449
C 7.81916 4.30453 -1.58964
C 7.76745 2.87248 -1.37364
C 7.10511 6.20783 0.17908
C 8.23029 5.00754 -2.84779
O 8.37200 4.37810 -3.95529
C 8.37126 6.46869 -2.76622
N 7.66332 -0.18238 -1.25669
C 7.68340 0.54930 -2.38459
C 7.78077 -0.33355 -3.60585
C 8.06683 -1.80560 -3.05014
C 7.99348 -1.52228 -1.53364
C 6.54644 -0.36099 -4.50699
C 9.31973 -2.53647 -3.60577
C 10.57547 -1.83966 -3.13356
N 7.99039 -1.27691 1.43262
C 8.00557 -2.49653 0.72101
C 7.96294 -3.58403 1.72000
C 7.90220 -2.91624 2.95242
C 7.88628 -1.51184 2.73586
C 7.93395 -4.97767 1.43183
C 7.83721 -3.08014 4.38686
O 7.90729 -4.03803 5.15580
C 7.48766 -1.67425 5.04081
C 8.43434 -1.44708 6.18742
O 9.65264 -1.30445 5.98243
O 7.72374 -1.21960 7.30709
C 8.61872 -0.97768 8.46998
H 6.05529 4.48511 2.18079
H 7.79867 2.22974 -3.37668
H 8.14170 -3.56438 -0.97978
H 6.22085 1.10064 5.77136
H 6.25430 3.67769 4.63347
H 4.32124 1.40414 4.44792
H 4.34712 2.47696 3.03276
H 3.97979 3.17037 4.58321
H 8.48725 3.00992 5.15178
H 8.89651 1.38536 5.81398
H 6.89794 2.54004 7.48131
H 7.85179 3.87550 6.94130
H 6.61659 6.24156 1.16072
H 6.36523 6.63367 -0.50730
H 8.00764 6.82210 0.15129
H 7.42698 6.90551 -2.45002
H 8.75729 6.77979 -3.73889
H 9.10447 6.70650 -1.98746
H 8.60637 -0.02987 -4.23773
H 7.24210 -2.49573 -3.28114
H 6.76302 -0.07210 -5.55280
H 5.79715 0.29197 -4.07951
H 6.02505 -1.31585 -4.54708
H 9.33150 -2.49115 -4.69754
H 9.36826 -3.58364 -3.32638
H 10.68876 -1.02188 -3.85154
H 11.42616 -2.51721 -3.16958
H 10.42848 -1.39152 -2.14401
H 8.62037 -5.45231 2.12035
H 8.20693 -5.17552 0.39737
H 6.88053 -5.19536 1.62722
H 6.44859 -1.71524 5.36978
H 8.33916 -1.69925 9.24384
H 8.50499 0.09472 8.71648
H 9.67247 -1.19829 8.34586

