%nproc=24
%mem=175gb
#p cam-b3lyp/Def2SVP td=(nstates=5)

TDDFT excited states in gaussian

0 1
Mg 15.76230 1.42735 1.20343
C 18.00440 1.41994 4.00557
C 13.23493 0.82955 3.41469
C 13.83270 0.98063 -1.27538
C 18.53383 0.88404 -0.83841
N 15.74716 1.17797 3.40112
C 16.65066 1.25688 4.36643
C 16.06129 1.23581 5.80231
C 14.67915 0.48269 5.48391
C 14.51710 0.87875 4.01777
C 14.78713 -1.03117 5.56058
C 15.81250 2.67825 6.36754
C 15.53084 2.74032 7.87039
H 16.03394 3.88406 8.62617
N 13.78086 1.45908 1.09626
C 12.90786 1.21482 2.09601
C 11.56860 1.34308 1.50095
C 11.72324 1.52068 0.03151
C 13.14852 1.30140 -0.11196
C 10.31251 1.37158 2.32245
C 10.74752 1.82349 -1.06506
O 11.06326 1.69804 -2.30094
C 9.38360 2.18109 -0.64871
N 16.09623 0.78540 -0.74560
C 15.09124 0.73066 -1.63719
C 15.61461 0.50804 -3.03609
C 17.20249 0.66679 -2.93105
C 17.33574 0.87456 -1.40643
C 15.27908 -0.84432 -3.66452
C 17.87071 1.70000 -3.87902
C 17.45077 3.10039 -3.49440
N 17.90547 1.37441 1.47185
C 18.88190 1.10420 0.48815
C 20.19054 1.06616 1.17258
C 19.87966 1.29588 2.52131
C 18.47428 1.44506 2.67015
C 21.44436 0.79495 0.55575
C 20.41976 1.43552 3.85454
O 21.55254 1.48967 4.33163
C 19.21751 1.39625 4.89350
C 19.40105 2.53453 5.85950
O 19.32454 3.71297 5.46959
O 19.41955 2.04901 7.11421
C 19.58847 3.14142 8.10916
H 12.40602 0.41753 3.99091
H 13.22347 0.92477 -2.18048
H 19.45599 0.81758 -1.41967
H 16.63775 0.66658 6.52165
H 13.86389 0.88470 6.07982
H 15.80745 -1.35570 5.70121
H 14.39832 -1.40178 4.62115
H 14.12009 -1.41786 6.33637
H 14.85624 3.05409 5.98148
H 16.63078 3.32844 6.12609
H 15.78753 1.80200 8.37697
H 14.45251 2.83809 8.01760
H 10.50021 1.05386 3.35552
H 9.64810 0.60053 1.91761
H 9.80238 2.33621 2.27867
H 8.96135 1.37005 -0.06017
H 8.85834 2.44890 -1.56755
H 9.43684 3.05420 0.01118
H 15.23070 1.25816 -3.71656
H 17.72244 -0.27339 -3.16672
H 14.73913 -0.75678 -4.62622
H 14.69854 -1.41662 -2.95320
H 16.13321 -1.49542 -3.84266
H 17.53212 1.54562 -4.90649
H 18.95410 1.64319 -3.88499
H 16.48343 3.21363 -3.99292
H 18.17073 3.83008 -3.85942
H 17.27615 3.17638 -2.41487
H 22.15102 1.50719 0.96055
H 21.37904 0.87045 -0.52768
H 21.60582 -0.23451 0.88650
H 19.24736 0.42692 5.39258
H 20.46303 2.88813 8.71634
H 18.61745 3.22107 8.63311
H 19.86617 4.12037 7.73634

