%nproc=24
%mem=175gb
#p cam-b3lyp/Def2SVP td=(nstates=5)

TDDFT excited states in gaussian

0 1
Mg 10.51867 0.94655 0.79129
C 10.11261 4.26087 -0.52380
C 9.98010 -0.21305 -2.37097
C 10.42288 -1.98929 1.99090
C 9.89000 2.27348 3.95195
N 10.11093 1.98776 -1.11709
C 10.04070 3.25175 -1.50662
C 9.96516 3.44755 -3.04464
C 9.35927 2.01389 -3.44009
C 9.87432 1.19621 -2.25739
C 7.84020 1.97654 -3.42118
C 11.37829 3.67143 -3.68881
C 11.35394 4.17509 -5.13363
H 12.39156 5.10867 -5.56287
N 10.72869 -0.81321 -0.10185
C 10.48783 -1.10180 -1.39799
C 10.77426 -2.53666 -1.55064
C 11.04523 -3.10686 -0.20299
C 10.71514 -1.97147 0.63487
C 10.85047 -3.21339 -2.88842
C 11.51058 -4.45540 0.25647
O 11.44943 -4.80523 1.48802
C 11.95279 -5.38810 -0.79044
N 9.99510 0.20388 2.66122
C 10.09268 -1.10875 2.93584
C 9.92907 -1.37041 4.41407
C 9.94235 0.06973 5.10935
C 10.02543 0.95848 3.84895
C 8.66040 -2.11982 4.82057
C 10.98093 0.29475 6.24221
C 12.38027 0.27728 5.67044
N 10.26181 2.92297 1.62547
C 9.98143 3.25155 2.96990
C 9.78071 4.71400 3.02791
C 9.93676 5.13519 1.69873
C 10.19510 4.01183 0.86757
C 9.44853 5.46256 4.19215
C 9.93117 6.27337 0.80810
O 9.85241 7.49218 0.95654
C 9.91945 5.74265 -0.69010
C 10.96373 6.50324 -1.46048
O 12.16980 6.37625 -1.18505
O 10.38767 7.08297 -2.52933
C 11.38551 7.84009 -3.33113
H 9.59983 -0.69075 -3.27434
H 10.48626 -2.96705 2.47407
H 9.78720 2.77600 4.91610
H 9.29716 4.23606 -3.36992
H 9.78518 1.64818 -4.37080
H 7.41957 2.89052 -3.02892
H 7.57439 1.13717 -2.79201
H 7.45651 1.73965 -4.41767
H 11.86239 2.69763 -3.83743
H 11.97155 4.33126 -3.08607
H 10.36237 4.54176 -5.42567
H 11.53314 3.32754 -5.79964
H 10.44282 -2.57806 -3.68440
H 10.17129 -4.07200 -2.85158
H 11.85605 -3.56808 -3.12435
H 11.14014 -5.55303 -1.49390
H 12.33153 -6.26414 -0.26037
H 12.76729 -4.92018 -1.35458
H 10.75736 -1.95345 4.79760
H 8.98072 0.29804 5.59202
H 8.86444 -3.04969 5.38430
H 8.08957 -2.33442 3.92690
H 7.95299 -1.54257 5.41350
H 10.93209 -0.52057 6.96819
H 10.83163 1.22075 6.78738
H 12.61267 -0.79064 5.61936
H 13.07006 0.80023 6.32980
H 12.39160 0.66648 4.64572
H 10.06564 6.35108 4.17758
H 9.60867 4.88116 5.09774
H 8.38750 5.65032 4.00715
H 8.91715 5.90635 -1.08780
H 11.01398 8.86586 -3.41750
H 11.50983 7.26865 -4.27014
H 12.36161 8.00512 -2.89018

