%nproc=24
%mem=175gb
#p cam-b3lyp/Def2SVP td=(nstates=5)

TDDFT excited states in gaussian

0 1
Mg 0.00000 0.00000 0.00000
C -0.21700 -2.21800 2.80100
C -1.25500 2.44200 2.02600
C -0.24500 1.85000 -2.56400
C 0.14600 -2.82400 -2.03700
N -0.61700 -0.00900 2.12600
C -0.59400 -0.90800 3.10500
C -0.93600 -0.30900 4.50200
C -1.77300 0.96400 4.03200
C -1.15500 1.16800 2.66000
C -3.26300 0.68500 3.86300
C 0.34500 0.11000 5.29900
C 0.12400 0.39700 6.78700
H 1.16800 0.03300 7.73300
N -0.18500 1.96100 -0.15200
C -0.70300 2.80000 0.77700
C -0.62000 4.15600 0.19300
C -0.18700 4.01500 -1.22500
C -0.21400 2.58300 -1.38000
C -0.88700 5.40600 0.97400
C 0.18100 5.01300 -2.27700
O 0.30300 4.69000 -3.50800
C 0.31000 6.41400 -1.83700
N -0.26500 -0.41300 -2.02900
C -0.27900 0.56900 -2.93700
C -0.19600 0.02400 -4.33200
C 0.12400 -1.53300 -4.18000
C 0.08600 -1.63200 -2.63500
C -1.45100 0.20500 -5.19700
C 1.37300 -2.07000 -4.92300
C 2.62600 -1.49000 -4.30600
N 0.15000 -2.14400 0.30300
C 0.17300 -3.13600 -0.68800
C 0.17300 -4.43800 0.00400
C 0.13300 -4.11100 1.35800
C 0.08300 -2.69500 1.50200
C 0.14900 -5.71500 -0.62300
C 0.09600 -4.62900 2.71600
O 0.20800 -5.74700 3.22100
C -0.25500 -3.42800 3.70100
C 0.71700 -3.48200 4.84800
O 1.93100 -3.25500 4.66900
O 0.03800 -3.55600 6.00300
C 0.94300 -3.58300 7.18300
H -1.85900 3.22000 2.49700
H -0.21800 2.45300 -3.47400
H 0.27600 -3.74700 -2.60500
H -1.55400 -0.94900 5.13200
H -1.58500 1.83100 4.66500
H -3.48400 -0.37700 3.96900
H -3.51100 1.02700 2.85800
H -3.85200 1.30100 4.54300
H 0.66900 1.09600 4.96600
H 1.13000 -0.63900 5.18900
H -0.84400 0.02600 7.12500
H 0.06200 1.47700 6.92100
H -1.34400 5.18600 1.93800
H -1.65100 5.96300 0.43200
H 0.00700 6.02000 1.08400
H -0.63500 6.74400 -1.40500
H 0.66500 6.97000 -2.70400
H 1.04800 6.46600 -1.03600
H 0.60800 0.50100 -4.89100
H -0.69200 -2.15600 -4.54700
H -1.26700 0.74000 -6.12900
H -2.20400 0.71400 -4.59600
H -1.96700 -0.72000 -5.45300
H 1.35600 -1.75900 -5.96700
H 1.45200 -3.15700 -4.90200
H 2.71400 -0.52200 -4.79800
H 3.48700 -2.12100 -4.52900
H 2.49500 -1.30300 -3.24000
H 0.86700 -6.33300 -0.08400
H 0.40400 -5.64200 -1.68000
H -0.89100 -5.99900 -0.46300
H -1.28300 -3.58100 4.02800
H 0.69800 -4.47800 7.75500
H 0.83300 -2.61900 7.68000
H 2.00000 -3.75400 6.97600
Mg 13.12869 1.18591 1.00038
C 11.24320 -1.61802 -0.20875
C 11.38223 3.11922 -1.20116
C 15.07545 3.58660 1.71750
C 15.45900 -1.09143 2.23693
N 11.54273 0.69825 -0.46221
C 10.86316 -0.39036 -0.79002
C 9.65946 -0.13645 -1.73669
C 10.16397 1.23387 -2.40493
C 11.06006 1.74059 -1.27669
C 11.02452 1.02045 -3.63913
C 8.31539 0.06735 -0.95313
C 7.05302 0.01196 -1.81633
H 5.84459 -0.57628 -1.24524
N 12.91168 3.13999 0.73010
C 12.14497 3.75320 -0.19586
C 12.34650 5.19630 0.00658
C 13.42104 5.38236 1.01923
C 13.86858 4.01382 1.18317
C 11.50255 6.23832 -0.66823
C 13.96547 6.59341 1.71433
O 15.06009 6.55261 2.37989
C 13.22876 7.85007 1.51545
N 15.09724 1.25439 1.66556
C 15.68975 2.42689 1.95211
C 17.00065 2.21431 2.67095
C 17.04928 0.65522 3.02372
C 15.74175 0.19998 2.33924
C 18.25735 2.59863 1.89031
C 17.27402 0.27742 4.51350
C 16.07311 0.68531 5.33620
N 13.25430 -0.96262 1.19037
C 14.33087 -1.71107 1.71467
C 14.00052 -3.13876 1.52753
C 12.75523 -3.12142 0.88144
C 12.34822 -1.77767 0.66199
C 14.82795 -4.23860 1.89060
C 11.69740 -3.93430 0.32563
O 11.45032 -5.13929 0.29940
C 10.73018 -2.99699 -0.51837
C 9.31368 -3.32116 -0.12982
O 8.90528 -3.08914 1.02169
O 8.61736 -3.64669 -1.23415
C 7.20339 -3.96582 -0.90150
H 11.05612 3.77331 -2.01030
H 15.73571 4.37686 2.08222
H 16.08862 -1.86403 2.68342
H 9.51494 -0.89134 -2.50026
H 9.33733 1.91942 -2.57244
H 11.25324 -0.02332 -3.79523
H 11.93156 1.58483 -3.46649
H 10.54897 1.47428 -4.51333
H 8.25863 1.10631 -0.60371
H 8.23351 -0.63626 -0.14762
H 7.25147 -0.40679 -2.81041
H 6.72469 1.03468 -2.01698
H 10.90475 5.80739 -1.48084
H 12.18830 6.92821 -1.17188
H 10.88728 6.80270 0.03575
H 13.18961 8.08158 0.45370
H 13.71820 8.58118 2.16183
H 12.19369 7.70459 1.84421
H 17.03377 2.78410 3.59146
H 17.87168 0.14472 2.50134
H 18.88635 3.34267 2.41458
H 17.95602 2.97138 0.92037
H 18.90912 1.76759 1.62616
H 18.12830 0.82548 4.91847
H 17.46719 -0.77907 4.66678
H 16.26055 1.74414 5.53831
H 16.02710 0.10958 6.25840
H 15.15149 0.62045 4.74625
H 14.18345 -4.97314 2.35489
H 15.62781 -3.93022 2.56060
H 15.20600 -4.53119 0.90737
H 10.92075 -3.19518 -1.57382
H 7.00081 -4.96690 -1.29455
H 6.60411 -3.13217 -1.31339
H 6.95136 -4.09436 0.14464

