%nproc=24
%mem=175gb
#p cam-b3lyp/Def2SVP td=(nstates=5)

TDDFT excited states in gaussian

0 1
Mg 0.00000 0.00000 0.00000
C -0.21700 -2.21800 2.80100
C -1.25500 2.44200 2.02600
C -0.24500 1.85000 -2.56400
C 0.14600 -2.82400 -2.03700
N -0.61700 -0.00900 2.12600
C -0.59400 -0.90800 3.10500
C -0.93600 -0.30900 4.50200
C -1.77300 0.96400 4.03200
C -1.15500 1.16800 2.66000
C -3.26300 0.68500 3.86300
C 0.34500 0.11000 5.29900
C 0.12400 0.39700 6.78700
H 1.16800 0.03300 7.73300
N -0.18500 1.96100 -0.15200
C -0.70300 2.80000 0.77700
C -0.62000 4.15600 0.19300
C -0.18700 4.01500 -1.22500
C -0.21400 2.58300 -1.38000
C -0.88700 5.40600 0.97400
C 0.18100 5.01300 -2.27700
O 0.30300 4.69000 -3.50800
C 0.31000 6.41400 -1.83700
N -0.26500 -0.41300 -2.02900
C -0.27900 0.56900 -2.93700
C -0.19600 0.02400 -4.33200
C 0.12400 -1.53300 -4.18000
C 0.08600 -1.63200 -2.63500
C -1.45100 0.20500 -5.19700
C 1.37300 -2.07000 -4.92300
C 2.62600 -1.49000 -4.30600
N 0.15000 -2.14400 0.30300
C 0.17300 -3.13600 -0.68800
C 0.17300 -4.43800 0.00400
C 0.13300 -4.11100 1.35800
C 0.08300 -2.69500 1.50200
C 0.14900 -5.71500 -0.62300
C 0.09600 -4.62900 2.71600
O 0.20800 -5.74700 3.22100
C -0.25500 -3.42800 3.70100
C 0.71700 -3.48200 4.84800
O 1.93100 -3.25500 4.66900
O 0.03800 -3.55600 6.00300
C 0.94300 -3.58300 7.18300
H -1.85900 3.22000 2.49700
H -0.21800 2.45300 -3.47400
H 0.27600 -3.74700 -2.60500
H -1.55400 -0.94900 5.13200
H -1.58500 1.83100 4.66500
H -3.48400 -0.37700 3.96900
H -3.51100 1.02700 2.85800
H -3.85200 1.30100 4.54300
H 0.66900 1.09600 4.96600
H 1.13000 -0.63900 5.18900
H -0.84400 0.02600 7.12500
H 0.06200 1.47700 6.92100
H -1.34400 5.18600 1.93800
H -1.65100 5.96300 0.43200
H 0.00700 6.02000 1.08400
H -0.63500 6.74400 -1.40500
H 0.66500 6.97000 -2.70400
H 1.04800 6.46600 -1.03600
H 0.60800 0.50100 -4.89100
H -0.69200 -2.15600 -4.54700
H -1.26700 0.74000 -6.12900
H -2.20400 0.71400 -4.59600
H -1.96700 -0.72000 -5.45300
H 1.35600 -1.75900 -5.96700
H 1.45200 -3.15700 -4.90200
H 2.71400 -0.52200 -4.79800
H 3.48700 -2.12100 -4.52900
H 2.49500 -1.30300 -3.24000
H 0.86700 -6.33300 -0.08400
H 0.40400 -5.64200 -1.68000
H -0.89100 -5.99900 -0.46300
H -1.28300 -3.58100 4.02800
H 0.69800 -4.47800 7.75500
H 0.83300 -2.61900 7.68000
H 2.00000 -3.75400 6.97600
Mg 10.51775 0.94416 0.80621
C 10.64484 -2.63879 0.64693
C 9.42031 0.61337 4.01881
C 9.96538 4.06851 0.83418
C 10.51192 0.96029 -2.67882
N 10.12379 -0.83532 2.05940
C 10.26673 -2.14388 1.91245
C 10.06673 -2.96311 3.21568
C 9.14685 -1.91901 4.01727
C 9.61194 -0.62418 3.35410
C 7.66216 -2.09010 3.74200
C 11.41829 -3.23191 3.96606
C 11.33987 -4.28297 5.07551
H 12.49113 -5.15523 5.29056
N 10.27342 2.19155 2.33032
C 9.84143 1.88497 3.57155
C 9.81638 3.15479 4.31390
C 10.11114 4.26035 3.36230
C 10.10748 3.53587 2.10723
C 9.61088 3.22508 5.79925
C 10.34355 5.72909 3.54940
O 10.34656 6.54195 2.55841
C 10.47449 6.20073 4.93573
N 10.06051 2.30865 -0.69428
C 9.92208 3.61760 -0.41966
C 9.86955 4.43811 -1.68631
C 10.24596 3.42854 -2.86811
C 10.36920 2.12143 -2.05468
C 8.52776 5.10281 -1.99317
C 11.42443 3.83686 -3.79394
C 12.72198 3.81329 -3.01859
N 10.75354 -0.52918 -0.75639
C 10.69116 -0.31168 -2.15027
C 10.79502 -1.63328 -2.80221
C 10.88820 -2.53728 -1.73329
C 10.82513 -1.83092 -0.50180
C 10.74696 -1.87542 -4.20405
C 11.01490 -3.92947 -1.36658
O 11.19844 -4.97735 -1.98464
C 10.73576 -4.06894 0.19195
C 11.82209 -4.92470 0.78363
O 13.00076 -4.52835 0.79962
O 11.26217 -5.96691 1.42447
C 12.29920 -6.83895 2.03760
H 8.85698 0.61910 4.95235
H 9.88321 5.15676 0.78486
H 10.61637 0.88960 -3.76361
H 9.53923 -3.90056 3.08650
H 9.38806 -1.91262 5.07705
H 7.47797 -2.81099 2.95935
H 7.30290 -1.11254 3.44815
H 7.13373 -2.34005 4.66645
H 11.67855 -2.34809 4.56261
H 12.19314 -3.49549 3.27270
H 10.41632 -4.87204 5.02072
H 11.27280 -3.76824 6.03706
H 9.25550 2.26852 6.20188
H 8.78143 3.91865 5.97483
H 10.49360 3.58827 6.32988
H 9.57433 5.94642 5.49025
H 10.72485 7.26076 4.86136
H 11.30063 5.66126 5.41225
H 10.60060 5.23685 -1.66026
H 9.40729 3.28678 -3.56551
H 8.60083 6.20072 -2.10862
H 7.83263 4.84887 -1.20396
H 8.01845 4.72762 -2.87919
H 11.29169 4.86290 -4.14575
H 11.52332 3.20595 -4.67096
H 12.72879 4.78678 -2.51923
H 13.56950 3.70979 -3.69315
H 12.70063 3.04303 -2.23892
H 11.52436 -2.59545 -4.42246
H 10.88394 -0.95701 -4.77109
H 9.73145 -2.26905 -4.29929
H 9.74971 -4.52012 0.30906
H 12.13366 -7.85043 1.65394
H 12.20460 -6.69283 3.13005
H 13.33027 -6.66977 1.74999

