%nproc=24
%mem=175gb
#p cam-b3lyp/Def2SVP td=(nstates=5)

TDDFT excited states in gaussian

0 1
Mg 0.00000 0.00000 0.00000
C -0.21700 -2.21800 2.80100
C -1.25500 2.44200 2.02600
C -0.24500 1.85000 -2.56400
C 0.14600 -2.82400 -2.03700
N -0.61700 -0.00900 2.12600
C -0.59400 -0.90800 3.10500
C -0.93600 -0.30900 4.50200
C -1.77300 0.96400 4.03200
C -1.15500 1.16800 2.66000
C -3.26300 0.68500 3.86300
C 0.34500 0.11000 5.29900
C 0.12400 0.39700 6.78700
H 1.16800 0.03300 7.73300
N -0.18500 1.96100 -0.15200
C -0.70300 2.80000 0.77700
C -0.62000 4.15600 0.19300
C -0.18700 4.01500 -1.22500
C -0.21400 2.58300 -1.38000
C -0.88700 5.40600 0.97400
C 0.18100 5.01300 -2.27700
O 0.30300 4.69000 -3.50800
C 0.31000 6.41400 -1.83700
N -0.26500 -0.41300 -2.02900
C -0.27900 0.56900 -2.93700
C -0.19600 0.02400 -4.33200
C 0.12400 -1.53300 -4.18000
C 0.08600 -1.63200 -2.63500
C -1.45100 0.20500 -5.19700
C 1.37300 -2.07000 -4.92300
C 2.62600 -1.49000 -4.30600
N 0.15000 -2.14400 0.30300
C 0.17300 -3.13600 -0.68800
C 0.17300 -4.43800 0.00400
C 0.13300 -4.11100 1.35800
C 0.08300 -2.69500 1.50200
C 0.14900 -5.71500 -0.62300
C 0.09600 -4.62900 2.71600
O 0.20800 -5.74700 3.22100
C -0.25500 -3.42800 3.70100
C 0.71700 -3.48200 4.84800
O 1.93100 -3.25500 4.66900
O 0.03800 -3.55600 6.00300
C 0.94300 -3.58300 7.18300
H -1.85900 3.22000 2.49700
H -0.21800 2.45300 -3.47400
H 0.27600 -3.74700 -2.60500
H -1.55400 -0.94900 5.13200
H -1.58500 1.83100 4.66500
H -3.48400 -0.37700 3.96900
H -3.51100 1.02700 2.85800
H -3.85200 1.30100 4.54300
H 0.66900 1.09600 4.96600
H 1.13000 -0.63900 5.18900
H -0.84400 0.02600 7.12500
H 0.06200 1.47700 6.92100
H -1.34400 5.18600 1.93800
H -1.65100 5.96300 0.43200
H 0.00700 6.02000 1.08400
H -0.63500 6.74400 -1.40500
H 0.66500 6.97000 -2.70400
H 1.04800 6.46600 -1.03600
H 0.60800 0.50100 -4.89100
H -0.69200 -2.15600 -4.54700
H -1.26700 0.74000 -6.12900
H -2.20400 0.71400 -4.59600
H -1.96700 -0.72000 -5.45300
H 1.35600 -1.75900 -5.96700
H 1.45200 -3.15700 -4.90200
H 2.71400 -0.52200 -4.79800
H 3.48700 -2.12100 -4.52900
H 2.49500 -1.30300 -3.24000
H 0.86700 -6.33300 -0.08400
H 0.40400 -5.64200 -1.68000
H -0.89100 -5.99900 -0.46300
H -1.28300 -3.58100 4.02800
H 0.69800 -4.47800 7.75500
H 0.83300 -2.61900 7.68000
H 2.00000 -3.75400 6.97600
Mg 13.13732 1.18741 1.00753
C 11.18744 -1.29920 2.70866
C 10.55550 3.35445 1.52976
C 14.63061 3.26342 -0.87069
C 15.01387 -1.41488 -0.35348
N 11.17788 0.94181 2.00379
C 10.57167 -0.03090 2.66764
C 9.26852 0.40018 3.39257
C 8.89845 1.67266 2.48554
C 10.29843 2.04153 1.99907
C 8.04908 1.32233 1.27509
C 9.52319 0.81300 4.88479
C 8.26079 0.94797 5.73911
H 8.32615 0.55614 7.14434
N 12.90709 3.15005 0.82429
C 11.79936 3.86891 1.10260
C 12.13432 5.26484 0.78112
C 13.47474 5.28874 0.13504
C 13.71911 3.86852 -0.01770
C 11.25446 6.42068 1.15966
C 14.38041 6.40529 -0.28840
O 15.39330 6.20001 -1.04651
C 13.99338 7.75933 0.13382
N 14.47101 0.95546 -0.57038
C 15.01165 2.02423 -1.18140
C 16.14348 1.61621 -2.09402
C 16.40991 0.07023 -1.78329
C 15.27718 -0.18191 -0.76410
C 15.89002 1.79796 -3.59038
C 17.85894 -0.32939 -1.39179
C 18.21218 0.26324 -0.04664
N 13.24986 -0.95373 1.27385
C 14.08857 -1.85620 0.58378
C 13.72213 -3.21695 1.02707
C 12.67176 -3.01154 1.93427
C 12.38908 -1.62236 2.03309
C 14.30281 -4.42911 0.55846
C 11.73074 -3.65479 2.82276
O 11.55556 -4.80745 3.21574
C 10.64348 -2.58436 3.26821
C 10.47723 -2.68424 4.75982
O 11.41382 -2.38566 5.52157
O 9.18090 -2.90473 5.04491
C 8.96378 -3.00032 6.51309
H 9.71773 4.04646 1.43947
H 15.24898 3.94453 -1.45991
H 15.61751 -2.27277 -0.65734
H 8.46680 -0.32766 3.35688
H 8.47899 2.47644 3.08500
H 7.93302 0.25493 1.15966
H 8.56618 1.74115 0.42172
H 7.08655 1.83914 1.32766
H 9.88111 1.85022 4.91326
H 10.20773 0.13490 5.35618
H 7.38544 0.49812 5.25503
H 8.00762 2.00794 5.81913
H 10.25994 6.08249 1.47584
H 11.06834 6.99385 0.24495
H 11.71661 7.07703 1.90012
H 13.00243 7.98820 -0.25102
H 14.80930 8.40988 -0.18699
H 13.91831 7.77691 1.22683
H 17.04166 2.17920 -1.87171
H 16.19439 -0.56379 -2.65587
H 16.64330 2.43910 -4.08595
H 14.89710 2.20728 -3.72115
H 15.83696 0.87496 -4.16524
H 18.57248 0.08274 -2.10954
H 18.01747 -1.40216 -1.35986
H 18.52212 1.28165 -0.29937
H 19.02486 -0.29339 0.41570
H 17.32675 0.33787 0.59530
H 14.46489 -5.05298 1.42738
H 15.23124 -4.24394 0.02227
H 13.50886 -4.78192 -0.10519
H 9.71941 -2.81542 2.73691
H 8.47352 -3.96040 6.70171
H 8.40644 -2.08660 6.79278
H 9.84030 -3.08267 7.14505

