%nproc=24
%mem=175gb
#p cam-b3lyp/Def2SVP td=(nstates=5)

TDDFT excited states in gaussian

0 1
Mg 10.51893 0.93996 0.79572
C 10.54315 1.37127 -2.76693
C 9.97698 -2.38150 0.24003
C 10.04391 0.59735 3.91412
C 9.92109 4.36267 1.06663
N 10.30710 -0.23329 -1.06731
C 10.39596 0.02798 -2.36275
C 10.40356 -1.22910 -3.27339
C 9.65506 -2.24791 -2.28311
C 10.02725 -1.60809 -0.94716
C 8.14198 -2.21925 -2.42134
C 11.85716 -1.71637 -3.60749
C 11.94682 -2.74585 -4.73616
H 13.09963 -2.69867 -5.63130
N 10.56302 -0.68771 1.93032
C 10.34208 -1.95974 1.53740
C 10.46979 -2.78324 2.74971
C 10.62124 -1.87572 3.91942
C 10.38934 -0.59179 3.28868
C 10.52127 -4.28304 2.71292
C 10.91232 -2.12357 5.36857
O 10.76359 -1.20659 6.25165
C 11.28672 -3.49687 5.73650
N 9.84152 2.23997 2.26998
C 9.77881 1.85398 3.55645
C 9.52867 3.03182 4.46778
C 9.67780 4.32889 3.54423
C 9.91053 3.64289 2.18017
C 8.16824 3.05694 5.16420
C 10.68990 5.41145 4.00939
C 12.09961 4.87309 3.91847
N 10.45521 2.61996 -0.56134
C 10.16130 3.96373 -0.24201
C 10.12554 4.71551 -1.51323
C 10.38040 3.74484 -2.49370
C 10.54217 2.47394 -1.87875
C 9.83489 6.10203 -1.65183
C 10.53885 3.50445 -3.90996
O 10.59300 4.21722 -4.91134
C 10.52589 1.93494 -4.16070
C 11.67910 1.59971 -5.06637
O 12.85125 1.75761 -4.68200
O 11.21489 0.94778 -6.14797
C 12.32284 0.58420 -7.07105
H 9.58078 -3.39568 0.18215
H 9.97702 0.55491 5.00370
H 9.83814 5.45158 1.07458
H 9.84254 -1.12617 -4.19449
H 10.07299 -3.24859 -2.35621
H 7.81260 -1.43071 -3.08153
H 7.75824 -2.06097 -1.42198
H 7.77334 -3.20047 -2.73383
H 12.23322 -2.32052 -2.77183
H 12.49727 -0.88384 -3.82607
H 11.01545 -2.80835 -5.31199
H 12.05481 -3.73861 -4.29256
H 10.21985 -4.67195 1.73246
H 9.74822 -4.64644 3.39863
H 11.48865 -4.67917 3.02904
H 10.48886 -4.17782 5.44978
H 11.54260 -3.45582 6.79703
H 12.17053 -3.78577 5.15682
H 10.26982 3.07484 5.25641
H 8.73004 4.88081 3.46077
H 8.24326 3.10535 6.26697
H 7.61231 2.18040 4.85900
H 7.50810 3.86705 4.85901
H 10.52048 5.66202 5.05947
H 10.62524 6.33480 3.44349
H 12.21128 4.31476 4.85276
H 12.81780 5.68827 3.85756
H 12.19522 4.15763 3.09347
H 10.54883 6.50048 -2.36037
H 9.89240 6.61784 -0.69558
H 8.81008 6.04973 -2.02903
H 9.56500 1.68306 -4.61106
H 12.07366 1.00435 -8.05037
H 12.41836 -0.51589 -7.00441
H 13.29328 1.03124 -6.88983

