%nproc=24
%mem=175gb
#p cam-b3lyp/Def2SVP td=(nstates=5)

TDDFT excited states in gaussian

0 1
Mg 15.77515 1.42412 1.20103
C 16.68638 -0.71451 3.93507
C 15.59916 3.97930 3.45373
C 14.53769 3.23098 -1.09492
C 14.91864 -1.44756 -0.57817
N 16.12109 1.49824 3.38439
C 16.52322 0.63642 4.30629
C 16.84152 1.27240 5.68607
C 15.92801 2.58724 5.56128
C 15.90481 2.72531 4.04040
C 14.50229 2.37751 6.04363
C 18.35928 1.63986 5.83902
C 18.79871 1.97714 7.26552
H 20.13749 1.58091 7.69346
N 15.62651 3.39809 1.05980
C 15.59242 4.28627 2.07530
C 15.45507 5.60974 1.44782
C 15.24517 5.41683 -0.01282
C 15.10447 3.97568 -0.07084
C 15.60634 6.89254 2.21264
C 15.16923 6.37252 -1.16481
O 14.74278 6.00614 -2.31665
C 15.52032 7.77154 -0.88025
N 14.66350 0.97913 -0.49854
C 14.29656 1.94636 -1.35746
C 13.74900 1.36060 -2.63709
C 14.05017 -0.20788 -2.55498
C 14.66689 -0.27343 -1.14050
C 12.25653 1.57975 -2.88382
C 14.84048 -0.83552 -3.73573
C 16.25663 -0.30660 -3.74795
N 15.95874 -0.70697 1.50565
C 15.51072 -1.73331 0.64542
C 15.75628 -3.01689 1.33428
C 16.31341 -2.64424 2.56685
C 16.38971 -1.22759 2.64919
C 15.42631 -4.30713 0.83177
C 16.84449 -3.12679 3.82136
O 17.10992 -4.23586 4.28314
C 16.99280 -1.89480 4.81464
C 18.35817 -1.96550 5.44176
O 19.38042 -1.82122 4.74835
O 18.22808 -1.97399 6.78093
C 19.55600 -2.03228 7.44803
H 15.29418 4.79722 4.10709
H 14.19613 3.80310 -1.96065
H 14.76967 -2.39173 -1.10639
H 16.53047 0.68326 6.54043
H 16.41138 3.44855 6.01500
H 14.30556 1.34268 6.28149
H 13.86593 2.70691 5.23271
H 14.28722 3.04273 6.88480
H 18.54466 2.60586 5.35196
H 18.98163 0.86064 5.44390
H 18.05198 1.67389 8.00942
H 18.85002 3.06410 7.36497
H 15.59113 6.71928 3.29576
H 14.70703 7.48756 2.02010
H 16.48263 7.46636 1.90360
H 14.86619 8.15684 -0.10172
H 15.49243 8.28186 -1.84496
H 16.53933 7.80177 -0.47861
H 14.25883 1.77164 -3.49978
H 13.12351 -0.79950 -2.52150
H 12.04288 2.09075 -3.84158
H 11.85250 2.14365 -2.05357
H 11.64833 0.67696 -2.86768
H 14.39216 -0.54429 -4.68880
H 14.86660 -1.91980 -3.71009
H 16.15886 0.64836 -4.27290
H 16.91490 -0.98660 -4.28492
H 16.60455 -0.08979 -2.73130
H 16.27230 -4.94834 1.04070
H 15.20465 -4.27439 -0.23292
H 14.53785 -4.52785 1.42942
H 16.19704 -1.97429 5.55628
H 19.54119 -2.90067 8.11390
H 19.69864 -1.04048 7.91679
H 20.41806 -2.25437 6.82998

