%nproc=24
%mem=175gb
#p cam-b3lyp/Def2SVP td=(nstates=5)

TDDFT excited states in gaussian

0 1
Mg 10.50117 0.94942 0.80136
C 8.52438 -1.84690 -0.27193
C 8.63298 2.88430 -1.29643
C 12.50543 3.33967 1.38194
C 12.88904 -1.33837 1.90126
N 8.82313 0.46591 -0.55608
C 8.11692 -0.61943 -0.83473
C 6.85785 -0.36160 -1.70527
C 7.32868 1.00180 -2.41120
C 8.29734 1.50765 -1.34420
C 8.10848 0.77620 -3.69586
C 5.56711 -0.14438 -0.83994
C 4.25263 -0.19501 -1.62182
H 3.07851 -0.77181 -0.97282
N 10.28090 2.90365 0.53481
C 9.46169 3.51775 -0.34443
C 9.68536 4.96036 -0.16276
C 10.82266 5.14373 0.77938
C 11.27030 3.77285 0.92220
C 8.80777 6.00504 -0.78879
C 11.41793 6.35426 1.43243
O 12.55191 6.30893 2.02813
C 10.67874 7.61515 1.27350
N 12.50805 1.00714 1.34121
C 13.12536 2.17678 1.58370
C 14.47737 1.95840 2.21990
C 14.53747 0.40075 2.57726
C 13.18644 -0.04851 1.97870
C 15.68511 2.32992 1.35983
C 14.85282 0.02868 4.05198
C 13.70879 0.44915 4.94629
N 10.62385 -1.19899 0.99457
C 11.72613 -1.95251 1.45421
C 11.37497 -3.37870 1.29583
C 10.09167 -3.35567 0.72915
C 9.68083 -2.01014 0.52852
C 12.21608 -4.48262 1.61209
C 8.99549 -4.16370 0.24524
O 8.73906 -5.36702 0.24102
C 7.98354 -3.22368 -0.54134
C 6.59209 -3.53584 -0.06286
O 6.25846 -3.29527 1.11078
O 5.82554 -3.86182 -1.11951
C 4.43313 -4.16923 -0.69699
H 8.26113 3.53672 -2.08697
H 13.19267 4.12699 1.70024
H 13.54020 -2.11323 2.31145
H 6.66050 -1.11918 -2.45421
H 6.49783 1.69238 -2.53012
H 8.31984 -0.26993 -3.86044
H 9.02840 1.33493 -3.58356
H 7.58203 1.22911 -4.54088
H 5.53949 0.89665 -0.49320
H 5.53123 -0.84343 -0.02712
H 4.38536 -0.62005 -2.62416
H 3.91930 0.82902 -1.80692
H 8.15717 5.57440 -1.55993
H 9.46519 6.68755 -1.33820
H 8.24183 6.57724 -0.05058
H 10.57452 7.84172 0.21508
H 11.21280 8.34592 1.88394
H 9.66541 7.47867 1.66740
H 14.57215 2.53244 3.13346
H 15.32192 -0.11816 2.00698
H 16.35086 3.07202 1.83956
H 15.32595 2.70004 0.40875
H 16.31332 1.49297 1.05970
H 15.73457 0.57261 4.39955
H 15.04805 -1.02840 4.19847
H 13.91576 1.50759 5.13056
H 13.71692 -0.12171 5.87263
H 12.75149 0.38796 4.41575
H 11.59704 -5.21026 2.11986
H 13.05854 -4.17667 2.22886
H 12.52958 -4.78272 0.60863
H 8.10605 -3.42840 -1.60560
H 4.19945 -5.17075 -1.07119
H 3.81484 -3.33336 -1.07488
H 4.24648 -4.29083 0.36359

