%nproc=24
%mem=175gb
#p cam-b3lyp/Def2SVP td=(nstates=5)

TDDFT excited states in gaussian

0 1
Mg 31.52917 2.84106 2.38554
C 33.13540 0.24673 0.49649
C 33.23558 5.08767 0.46837
C 30.48393 5.13206 4.31589
C 30.86490 0.45392 4.83625
N 32.96944 2.57871 0.72751
C 33.45692 1.54711 0.05482
C 34.27370 1.93085 -1.20818
C 34.70162 3.41695 -0.77546
C 33.54871 3.73663 0.17389
C 35.99847 3.46359 0.01534
C 33.39475 1.94169 -2.50792
C 34.18399 2.00425 -3.81748
H 33.66807 1.28078 -4.97631
N 31.41928 4.80312 2.10835
C 32.17244 5.55057 1.27447
C 31.71631 6.93753 1.45458
C 30.74603 6.96949 2.58253
C 30.86377 5.60991 3.07013
C 32.13917 8.05731 0.54866
C 29.86817 8.04913 3.13925
O 29.28168 7.92291 4.27191
C 29.78995 9.29560 2.36355
N 30.96976 2.85146 4.38786
C 30.50248 3.97015 4.96931
C 29.90730 3.67260 6.32490
C 29.85374 2.07770 6.42989
C 30.53958 1.71305 5.09496
C 30.66932 4.23601 7.52419
C 28.47450 1.43945 6.75081
C 27.52689 1.64834 5.59158
N 31.74908 0.69975 2.57121
C 31.43181 -0.09615 3.69369
C 31.86312 -1.47508 3.38558
C 32.42676 -1.38054 2.10423
C 32.37027 -0.03372 1.65437
C 31.75596 -2.59475 4.25792
C 33.06630 -2.11188 1.03426
O 33.30282 -3.29895 0.81366
C 33.66799 -1.06788 -0.00228
C 33.27086 -1.50526 -1.38558
O 32.07601 -1.50328 -1.73045
O 34.37736 -1.64469 -2.13830
C 34.03426 -2.06672 -3.52249
H 33.89023 5.86846 0.08019
H 30.01468 5.86314 4.97831
H 30.60440 -0.36628 5.50862
H 35.15543 1.32527 -1.38026
H 34.69400 4.09362 -1.62600
H 36.35802 2.47472 0.25823
H 35.77295 4.01643 0.91786
H 36.74615 4.05466 -0.52126
H 32.85568 2.89593 -2.56767
H 32.73091 1.09930 -2.52599
H 35.24782 1.78281 -3.66858
H 34.17299 3.03488 -4.18037
H 32.98438 7.76386 -0.08609
H 32.54190 8.85074 1.18752
H 31.31045 8.46136 -0.03669
H 30.78647 9.71744 2.25649
H 29.04619 9.91095 2.87349
H 29.43878 9.05752 1.35330
H 28.90003 4.06370 6.39930
H 30.50543 1.70002 7.23145
H 30.05046 4.89123 8.16589
H 31.53538 4.77091 7.15765
H 31.11809 3.49015 8.17803
H 28.02124 1.93168 7.61477
H 28.53097 0.37986 6.97679
H 27.14180 2.65741 5.76639
H 26.72672 0.91125 5.61329
H 28.06816 1.66260 4.63845
H 31.40238 -3.42340 3.65892
H 31.08433 -2.38864 5.08870
H 32.79535 -2.68826 4.58382
H 34.75058 -1.06162 0.13009
H 34.59514 -2.98438 -3.72500
H 34.25109 -1.19192 -4.16394
H 33.01826 -2.39427 -3.70929

