%nproc=24
%mem=175gb
#p cam-b3lyp/Def2SVP td=(nstates=5)

TDDFT excited states in gaussian

0 1
Mg 8.94174 0.79824 0.68301
C 9.15580 -1.84293 -1.73721
C 8.09793 -1.57756 2.98043
C 8.30663 3.14140 2.72597
C 8.67411 3.02947 -1.98076
N 8.69236 -1.39356 0.52163
C 8.86009 -2.29494 -0.43426
C 8.78119 -3.76779 0.04953
C 7.89542 -3.54018 1.36957
C 8.27339 -2.09134 1.67072
C 6.39959 -3.59911 1.10814
C 10.19214 -4.35843 0.39935
C 10.22632 -5.87748 0.58122
H 11.41419 -6.60450 0.14206
N 8.77793 0.76866 2.66060
C 8.44891 -0.28711 3.43416
C 8.44442 0.21355 4.81744
C 8.63622 1.68892 4.78294
C 8.55852 1.93155 3.35634
C 8.34903 -0.69257 6.01045
C 8.84121 2.71374 5.85716
O 8.74735 3.96922 5.61677
C 9.06263 2.20218 7.21759
N 8.33561 2.76988 0.42304
C 8.18193 3.59058 1.47697
C 8.01183 5.02362 1.03217
C 8.32638 5.02699 -0.53583
C 8.54646 3.51379 -0.75304
C 6.63289 5.63652 1.27566
C 9.42032 6.01175 -1.03206
C 10.77253 5.58978 -0.50398
N 9.10042 0.67824 -1.46838
C 8.92767 1.72855 -2.39632
C 9.01893 1.13602 -3.74651
C 9.21705 -0.23241 -3.50849
C 9.22695 -0.47855 -2.10892
C 8.87260 1.83944 -4.97529
C 9.40943 -1.52623 -4.12308
O 9.57507 -1.92462 -5.27528
C 9.25194 -2.64514 -3.00521
C 10.40289 -3.60382 -3.14220
O 11.56800 -3.22799 -2.92337
O 9.92171 -4.85101 -3.29504
C 11.02558 -5.83927 -3.42402
H 7.60626 -2.20666 3.72298
H 8.19086 4.00280 3.38784
H 8.69882 3.67322 -2.86261
H 8.27166 -4.44195 -0.62845
H 8.21516 -4.19342 2.17728
H 6.17727 -3.66706 0.05358
H 5.99234 -2.68619 1.52260
H 5.94911 -4.41634 1.67870
H 10.47181 -4.04158 1.41234
H 10.91982 -4.06563 -0.33234
H 9.31795 -6.35891 0.19909
H 10.21731 -6.09916 1.65117
H 8.05150 -1.70813 5.72147
H 7.51617 -0.32924 6.62217
H 9.25866 -0.69043 6.61481
H 8.21399 1.59142 7.51632
H 9.27723 3.08090 7.82889
H 9.93682 1.54169 7.20503
H 8.72035 5.67104 1.53411
H 7.44202 5.30415 -1.12822
H 6.66664 6.55820 1.88676
H 6.00623 4.89080 1.74653
H 6.06916 5.87734 0.37598
H 9.23318 7.01450 -0.64011
H 9.47061 6.09260 -2.11276
H 10.78978 6.01982 0.50193
H 11.56961 5.99857 -1.12172
H 10.83107 4.50032 -0.39776
H 9.65109 1.47944 -5.63473
H 8.94115 2.91527 -4.82815
H 7.86411 1.52747 -5.25971
H 8.29034 -3.13448 -3.16469
H 10.85984 -6.38315 -4.35912
H 11.00917 -6.42929 -2.48841
H 12.02709 -5.45479 -3.57764

