%nproc=24
%mem=175gb
#p cam-b3lyp/Def2SVP td=(nstates=5)

TDDFT excited states in gaussian

0 1
Mg 0.00000 0.00000 0.00000
C -0.21700 -2.21800 2.80100
C -1.25500 2.44200 2.02600
C -0.24500 1.85000 -2.56400
C 0.14600 -2.82400 -2.03700
N -0.61700 -0.00900 2.12600
C -0.59400 -0.90800 3.10500
C -0.93600 -0.30900 4.50200
C -1.77300 0.96400 4.03200
C -1.15500 1.16800 2.66000
C -3.26300 0.68500 3.86300
C 0.34500 0.11000 5.29900
C 0.12400 0.39700 6.78700
H 1.16800 0.03300 7.73300
N -0.18500 1.96100 -0.15200
C -0.70300 2.80000 0.77700
C -0.62000 4.15600 0.19300
C -0.18700 4.01500 -1.22500
C -0.21400 2.58300 -1.38000
C -0.88700 5.40600 0.97400
C 0.18100 5.01300 -2.27700
O 0.30300 4.69000 -3.50800
C 0.31000 6.41400 -1.83700
N -0.26500 -0.41300 -2.02900
C -0.27900 0.56900 -2.93700
C -0.19600 0.02400 -4.33200
C 0.12400 -1.53300 -4.18000
C 0.08600 -1.63200 -2.63500
C -1.45100 0.20500 -5.19700
C 1.37300 -2.07000 -4.92300
C 2.62600 -1.49000 -4.30600
N 0.15000 -2.14400 0.30300
C 0.17300 -3.13600 -0.68800
C 0.17300 -4.43800 0.00400
C 0.13300 -4.11100 1.35800
C 0.08300 -2.69500 1.50200
C 0.14900 -5.71500 -0.62300
C 0.09600 -4.62900 2.71600
O 0.20800 -5.74700 3.22100
C -0.25500 -3.42800 3.70100
C 0.71700 -3.48200 4.84800
O 1.93100 -3.25500 4.66900
O 0.03800 -3.55600 6.00300
C 0.94300 -3.58300 7.18300
H -1.85900 3.22000 2.49700
H -0.21800 2.45300 -3.47400
H 0.27600 -3.74700 -2.60500
H -1.55400 -0.94900 5.13200
H -1.58500 1.83100 4.66500
H -3.48400 -0.37700 3.96900
H -3.51100 1.02700 2.85800
H -3.85200 1.30100 4.54300
H 0.66900 1.09600 4.96600
H 1.13000 -0.63900 5.18900
H -0.84400 0.02600 7.12500
H 0.06200 1.47700 6.92100
H -1.34400 5.18600 1.93800
H -1.65100 5.96300 0.43200
H 0.00700 6.02000 1.08400
H -0.63500 6.74400 -1.40500
H 0.66500 6.97000 -2.70400
H 1.04800 6.46600 -1.03600
H 0.60800 0.50100 -4.89100
H -0.69200 -2.15600 -4.54700
H -1.26700 0.74000 -6.12900
H -2.20400 0.71400 -4.59600
H -1.96700 -0.72000 -5.45300
H 1.35600 -1.75900 -5.96700
H 1.45200 -3.15700 -4.90200
H 2.71400 -0.52200 -4.79800
H 3.48700 -2.12100 -4.52900
H 2.49500 -1.30300 -3.24000
H 0.86700 -6.33300 -0.08400
H 0.40400 -5.64200 -1.68000
H -0.89100 -5.99900 -0.46300
H -1.28300 -3.58100 4.02800
H 0.69800 -4.47800 7.75500
H 0.83300 -2.61900 7.68000
H 2.00000 -3.75400 6.97600
Mg 10.50165 0.94959 0.80252
C 8.36892 -1.82760 0.01659
C 8.41081 2.89172 -1.06594
C 12.59444 3.31576 1.10072
C 12.97813 -1.36230 1.61980
N 8.66029 0.47785 -0.32845
C 7.91036 -0.59966 -0.50430
C 6.55554 -0.33170 -1.21298
C 6.95210 1.01803 -1.98746
C 8.05361 1.51971 -1.05597
C 7.56148 0.76910 -3.35714
C 5.38658 -0.08765 -0.19515
C 3.98382 -0.12647 -0.80551
H 2.89287 -0.68003 -0.00810
N 10.27560 2.90424 0.54398
C 9.36076 3.52193 -0.23241
C 9.62456 4.96277 -0.09625
C 10.87342 5.13839 0.69382
C 11.31723 3.76254 0.79463
C 8.68928 6.01420 -0.61892
C 11.56192 6.34620 1.25362
O 12.76099 6.28995 1.70295
C 10.82541 7.61616 1.17460
N 12.56100 0.98317 1.08589
C 13.21931 2.14592 1.23609
C 14.63745 1.91386 1.70020
C 14.72126 0.35891 2.06449
C 13.29997 -0.07624 1.64502
C 15.73254 2.25971 0.69146
C 15.21421 -0.00389 3.49210
C 14.19712 0.44153 4.51802
N 10.61912 -1.19847 1.00269
C 11.76028 -1.96362 1.32888
C 11.37314 -3.38597 1.23162
C 10.02930 -3.34958 0.83003
C 9.61440 -2.00015 0.66754
C 12.23258 -4.49900 1.45220
C 8.87045 -4.14608 0.49634
O 8.59959 -5.34552 0.53767
C 7.78035 -3.19884 -0.16759
C 6.45592 -3.48623 0.48496
O 6.27541 -3.22986 1.68841
O 5.55859 -3.81090 -0.46360
C 4.22625 -4.09406 0.13350
H 7.95138 3.54205 -1.81084
H 13.32656 4.09595 1.32160
H 13.66528 -2.14267 1.95372
H 6.25574 -1.09331 -1.92281
H 6.12212 1.71949 -2.00897
H 7.73663 -0.28149 -3.53528
H 8.49554 1.31542 -3.36724
H 6.93921 1.22169 -4.13449
H 5.41649 0.95688 0.14072
H 5.44371 -0.77846 0.62346
H 3.98408 -0.56275 -1.81179
H 3.64351 0.90053 -0.95874
H 7.94140 5.58587 -1.29760
H 9.28155 6.68190 -1.25394
H 8.22807 6.60146 0.17801
H 10.59222 7.83430 0.13513
H 11.44149 8.34477 1.70512
H 9.86780 7.49812 1.69389
H 14.85372 2.49499 2.58824
H 15.42100 -0.17666 1.40619
H 16.46300 2.99650 1.07569
H 15.26182 2.62609 -0.21116
H 16.30697 1.41094 0.32428
H 16.13974 0.53040 3.72034
H 15.41225 -1.06228 3.62470
H 14.43959 1.49853 4.66313
H 14.31386 -0.12069 5.44232
H 13.18009 0.38931 4.11236
H 11.67256 -5.21277 2.04161
H 13.14976 -4.19957 1.95508
H 12.41368 -4.81300 0.42076
H 7.76562 -3.41527 -1.23647
H 3.93420 -5.09554 -0.19731
H 3.57656 -3.25286 -0.17317
H 4.17256 -4.20300 1.21039

