%nproc=24
%mem=175gb
#p cam-b3lyp/Def2SVP td=(nstates=5)

TDDFT excited states in gaussian

0 1
Mg 0.00000 0.00000 0.00000
C -0.21700 -2.21800 2.80100
C -1.25500 2.44200 2.02600
C -0.24500 1.85000 -2.56400
C 0.14600 -2.82400 -2.03700
N -0.61700 -0.00900 2.12600
C -0.59400 -0.90800 3.10500
C -0.93600 -0.30900 4.50200
C -1.77300 0.96400 4.03200
C -1.15500 1.16800 2.66000
C -3.26300 0.68500 3.86300
C 0.34500 0.11000 5.29900
C 0.12400 0.39700 6.78700
H 1.16800 0.03300 7.73300
N -0.18500 1.96100 -0.15200
C -0.70300 2.80000 0.77700
C -0.62000 4.15600 0.19300
C -0.18700 4.01500 -1.22500
C -0.21400 2.58300 -1.38000
C -0.88700 5.40600 0.97400
C 0.18100 5.01300 -2.27700
O 0.30300 4.69000 -3.50800
C 0.31000 6.41400 -1.83700
N -0.26500 -0.41300 -2.02900
C -0.27900 0.56900 -2.93700
C -0.19600 0.02400 -4.33200
C 0.12400 -1.53300 -4.18000
C 0.08600 -1.63200 -2.63500
C -1.45100 0.20500 -5.19700
C 1.37300 -2.07000 -4.92300
C 2.62600 -1.49000 -4.30600
N 0.15000 -2.14400 0.30300
C 0.17300 -3.13600 -0.68800
C 0.17300 -4.43800 0.00400
C 0.13300 -4.11100 1.35800
C 0.08300 -2.69500 1.50200
C 0.14900 -5.71500 -0.62300
C 0.09600 -4.62900 2.71600
O 0.20800 -5.74700 3.22100
C -0.25500 -3.42800 3.70100
C 0.71700 -3.48200 4.84800
O 1.93100 -3.25500 4.66900
O 0.03800 -3.55600 6.00300
C 0.94300 -3.58300 7.18300
H -1.85900 3.22000 2.49700
H -0.21800 2.45300 -3.47400
H 0.27600 -3.74700 -2.60500
H -1.55400 -0.94900 5.13200
H -1.58500 1.83100 4.66500
H -3.48400 -0.37700 3.96900
H -3.51100 1.02700 2.85800
H -3.85200 1.30100 4.54300
H 0.66900 1.09600 4.96600
H 1.13000 -0.63900 5.18900
H -0.84400 0.02600 7.12500
H 0.06200 1.47700 6.92100
H -1.34400 5.18600 1.93800
H -1.65100 5.96300 0.43200
H 0.00700 6.02000 1.08400
H -0.63500 6.74400 -1.40500
H 0.66500 6.97000 -2.70400
H 1.04800 6.46600 -1.03600
H 0.60800 0.50100 -4.89100
H -0.69200 -2.15600 -4.54700
H -1.26700 0.74000 -6.12900
H -2.20400 0.71400 -4.59600
H -1.96700 -0.72000 -5.45300
H 1.35600 -1.75900 -5.96700
H 1.45200 -3.15700 -4.90200
H 2.71400 -0.52200 -4.79800
H 3.48700 -2.12100 -4.52900
H 2.49500 -1.30300 -3.24000
H 0.86700 -6.33300 -0.08400
H 0.40400 -5.64200 -1.68000
H -0.89100 -5.99900 -0.46300
H -1.28300 -3.58100 4.02800
H 0.69800 -4.47800 7.75500
H 0.83300 -2.61900 7.68000
H 2.00000 -3.75400 6.97600
Mg 15.75990 1.41440 1.20449
C 15.00008 4.07216 3.49317
C 17.08652 -0.28280 3.84914
C 16.84464 -0.74419 -0.85251
C 15.43416 3.73190 -1.37791
N 15.95836 1.93230 3.34567
C 15.57773 2.94371 4.11152
C 15.75701 2.70055 5.63411
C 16.91625 1.59135 5.56563
C 16.62080 1.01407 4.18283
C 18.31559 2.18367 5.54691
C 14.45763 2.13270 6.30580
C 14.45903 2.16228 7.83579
H 13.20023 2.42436 8.52804
N 16.36140 -0.45347 1.50084
C 16.85086 -0.97915 2.64337
C 17.16633 -2.38310 2.33748
C 16.97742 -2.59890 0.87719
C 16.73528 -1.23898 0.43891
C 17.52238 -3.38632 3.39588
C 17.02169 -3.82444 0.01564
O 17.06434 -3.74742 -1.26307
C 17.10791 -5.11474 0.71506
N 16.30029 1.52369 -0.80010
C 16.68881 0.42586 -1.47221
C 16.76080 0.69219 -2.95689
C 16.10379 2.13504 -3.16689
C 15.83484 2.50767 -1.69238
C 18.16165 0.67729 -3.56827
C 14.93047 2.23338 -4.17997
C 13.72885 1.48292 -3.65244
N 15.12397 3.47206 1.03225
C 15.08906 4.25879 -0.13990
C 14.69606 5.62442 0.26390
C 14.55081 5.54237 1.65697
C 14.85297 4.22406 2.09316
C 14.56682 6.74416 -0.60535
C 14.22090 6.27390 2.85894
O 13.80039 7.40479 3.09975
C 14.61986 5.38675 4.11599
C 13.46368 5.39786 5.07809
O 12.37842 4.87563 4.76809
O 13.89366 5.82668 6.27876
C 12.78504 5.84465 7.26995
H 17.72925 -0.80221 4.56048
H 17.10876 -1.47780 -1.61772
H 15.21551 4.48727 -2.13573
H 16.09949 3.56220 6.19450
H 16.78256 0.83245 6.33216
H 18.29634 3.26013 5.46326
H 18.80872 1.74625 4.68870
H 18.87899 1.84743 6.42204
H 14.41265 1.04879 6.13888
H 13.58598 2.63637 5.93544
H 15.25714 2.79993 8.23500
H 14.70607 1.16283 8.20197
H 17.74385 -2.89928 4.35355
H 18.47230 -3.84275 3.09720
H 16.77084 -4.17158 3.50178
H 17.99946 -5.12927 1.33746
H 17.03878 -5.87525 -0.06515
H 16.25045 -5.20406 1.39138
H 16.18490 -0.03998 -3.50950
H 16.83447 2.86406 -3.54700
H 18.26892 -0.04893 -4.39601
H 18.87479 0.46630 -2.78248
H 18.51100 1.63679 -3.94578
H 15.20439 1.75628 -5.12417
H 14.64025 3.25377 -4.40705
H 13.93852 0.44820 -3.93963
H 12.81547 1.84500 -4.12008
H 13.69127 1.51996 -2.55751
H 13.65925 7.25823 -0.31804
H 14.53708 6.43635 -1.64849
H 15.48501 7.28599 -0.36328
H 15.51959 5.82245 4.55215
H 12.73549 6.85991 7.67550
H 13.00783 5.02804 7.98218
H 11.77603 5.71691 6.89573

