%nproc=24
%mem=175gb
#p cam-b3lyp/Def2SVP td=(nstates=5)

TDDFT excited states in gaussian

0 1
Mg 8.94180 0.80703 0.67178
C 8.43109 4.35293 0.45998
C 8.32571 0.66869 -2.68022
C 8.94013 -2.35743 0.90337
C 8.38821 1.07225 4.10236
N 8.45407 2.37601 -0.80900
C 8.34741 3.69601 -0.78537
C 8.21951 4.35610 -2.18447
C 7.62892 3.09891 -2.99041
C 8.19667 1.97003 -2.13253
C 6.11220 3.01506 -2.94732
C 9.60702 4.80783 -2.76134
C 9.52735 5.73311 -3.97760
H 10.53284 6.78235 -4.12098
N 9.15705 -0.58322 -0.72802
C 8.88085 -0.46303 -2.04353
C 9.18968 -1.77155 -2.64065
C 9.51399 -2.72311 -1.54335
C 9.18895 -1.91254 -0.38688
C 9.23644 -1.99851 -4.12380
C 10.01933 -4.13406 -1.53629
O 10.00388 -4.84951 -0.47293
C 10.44593 -4.68412 -2.83125
N 8.49195 -0.49235 2.23113
C 8.62323 -1.82224 2.08255
C 8.51150 -2.53311 3.41017
C 8.51925 -1.37916 4.51738
C 8.54542 -0.14194 3.59326
C 7.27088 -3.40673 3.59465
C 9.58867 -1.48692 5.63872
C 10.96930 -1.28737 5.05611
N 8.67375 2.42015 2.08389
C 8.42982 2.30843 3.47029
C 8.20313 3.67488 3.98396
C 8.30897 4.49103 2.84765
C 8.56230 3.68782 1.70303
C 7.89372 4.01667 5.33064
C 8.25346 5.84838 2.35447
O 8.15617 6.95866 2.87556
C 8.20448 5.80738 0.76629
C 9.20914 6.79799 0.24488
O 10.42554 6.62577 0.43811
O 8.58858 7.66376 -0.57714
C 9.54591 8.65950 -1.12836
H 7.92624 0.48365 -3.67775
H 9.03743 -3.43455 1.05770
H 8.30638 1.24855 5.17702
H 7.52662 5.18756 -2.23284
H 8.03208 3.05134 -3.99866
H 5.68681 3.75058 -2.28084
H 5.88252 2.01507 -2.60337
H 5.70177 3.08764 -3.95857
H 10.10470 3.94181 -3.21638
H 10.20635 5.26499 -1.99816
H 8.52021 6.14428 -4.11744
H 9.70155 5.13872 -4.87780
H 8.79175 -1.15966 -4.67332
H 8.57529 -2.84501 -4.33874
H 10.24064 -2.23448 -4.48235
H 9.61473 -4.64585 -3.53133
H 10.85793 -5.67026 -2.60842
H 11.23309 -4.04195 -3.24190
H 9.36250 -3.18283 3.57377
H 7.56919 -1.33847 5.07015
H 7.51038 -4.45934 3.83699
H 6.67626 -3.35003 2.69256
H 6.57169 -3.06140 4.35431
H 9.57841 -2.48794 6.07689
H 9.43902 -0.77971 6.44770
H 11.22033 -2.28009 4.67064
H 11.66948 -0.97514 5.82830
H 10.94076 -0.59993 4.20273
H 8.49296 4.88296 5.57754
H 8.09350 3.18822 6.00705
H 6.82397 4.22273 5.23871
H 7.18716 6.05805 0.46333
H 9.15230 9.65080 -0.88324
H 9.65135 8.41051 -2.20104
H 10.53214 8.70716 -0.68168

