%nproc=24
%mem=175gb
#p cam-b3lyp/Def2SVP td=(nstates=5)

TDDFT excited states in gaussian

0 1
Mg 10.51335 0.95110 0.80754
C 9.24244 -1.40357 3.19905
C 8.38388 3.24706 2.15977
C 11.28045 2.91304 -1.56518
C 11.66311 -1.76536 -1.04843
N 9.05219 0.81921 2.46279
C 8.69985 -0.10921 3.33928
C 7.77192 0.39808 4.47557
C 7.13828 1.66591 3.72060
C 8.27216 1.95829 2.74003
C 5.89063 1.32865 2.92126
C 8.57333 0.83171 5.75296
C 7.72059 1.04428 7.00573
H 8.28585 0.68120 8.30231
N 10.30075 2.91777 0.64762
C 9.39972 3.69343 1.28618
C 9.64123 5.06475 0.81151
C 10.64881 5.01185 -0.28243
C 10.76964 3.57874 -0.46044
C 9.00414 6.26843 1.44293
C 11.37301 6.07533 -1.05103
O 12.02701 5.80631 -2.12002
C 11.21674 7.45498 -0.56767
N 11.16202 0.62227 -1.14014
C 11.47631 1.65086 -1.94708
C 12.17669 1.17038 -3.19568
C 12.48454 -0.37903 -2.94636
C 11.79948 -0.55542 -1.57342
C 11.39574 1.33038 -4.49986
C 13.96084 -0.83685 -3.10005
C 14.80585 -0.23152 -2.00236
N 10.64102 -1.18649 1.09466
C 11.13387 -2.14216 0.17930
C 10.90927 -3.47417 0.77740
C 10.27545 -3.19996 1.99869
C 10.09806 -1.79727 2.14186
C 11.23328 -4.72218 0.17439
C 9.70654 -3.77878 3.19452
O 9.64835 -4.91300 3.66769
C 8.89850 -2.64924 3.96757
C 9.29072 -2.70805 5.41851
O 10.45208 -2.43652 5.77080
O 8.18406 -2.86157 6.16824
C 8.52053 -2.91425 7.61594
H 7.59670 3.97514 2.35761
H 11.66138 3.55135 -2.36577
H 12.08163 -2.65696 -1.52019
H 6.98857 -0.29226 4.76462
H 6.99796 2.50149 4.40140
H 5.70281 0.26550 2.89704
H 6.07087 1.70385 1.92237
H 5.03411 1.89074 3.30434
H 8.95265 1.85152 5.60862
H 9.35923 0.13314 5.96505
H 6.71321 0.62500 6.89466
H 7.55213 2.11640 7.13303
H 8.18515 5.98402 2.11507
H 8.51400 6.82915 0.63967
H 9.72953 6.91888 1.93628
H 10.16240 7.72110 -0.56971
H 11.87909 8.05955 -1.19029
H 11.55076 7.50035 0.47492
H 13.11269 1.69576 -3.34053
H 11.94028 -1.02159 -3.65399
H 11.93512 1.92458 -5.26149
H 10.43961 1.78247 -4.27191
H 11.10206 0.39829 -4.97961
H 14.37332 -0.47446 -4.04487
H 14.08223 -1.91486 -3.08806
H 15.03623 0.76549 -2.38966
H 15.71169 -0.81494 -1.85038
H 14.22281 -0.10148 -1.08322
H 11.68243 -5.33342 0.94585
H 11.90437 -4.59240 -0.67211
H 10.23869 -5.05233 -0.13713
H 7.83612 -2.84881 3.82226
H 8.10106 -3.84604 8.00774
H 8.13806 -1.96958 8.04611
H 9.56488 -3.02323 7.88412

