%nproc=24
%mem=175gb
#p cam-b3lyp/Def2SVP td=(nstates=5)

TDDFT excited states in gaussian

0 1
Mg 13.14607 1.18336 1.00552
C 11.58748 -0.65604 3.66380
C 13.26124 3.85521 3.12273
C 14.10400 2.95727 -1.44459
C 11.88927 -1.20627 -1.19807
N 12.47959 1.44246 3.09859
C 11.95723 0.65568 4.02727
C 11.89760 1.28560 5.44473
C 11.90267 2.83430 5.02004
C 12.62341 2.71752 3.67855
C 10.51241 3.39383 4.76818
C 13.15362 0.92393 6.31286
C 13.01955 1.24522 7.80301
H 13.64801 0.34721 8.76794
N 14.05574 2.94692 0.97488
C 14.01363 3.90091 1.92851
C 14.83019 5.01408 1.42033
C 15.22263 4.70604 0.01825
C 14.44161 3.50822 -0.21698
C 15.23033 6.18432 2.27112
C 16.13822 5.38522 -0.95469
O 16.14672 5.07731 -2.19885
C 16.95750 6.48537 -0.42559
N 12.84119 1.03670 -1.04579
C 13.41354 1.90908 -1.89390
C 13.28045 1.44584 -3.32502
C 12.70902 -0.04554 -3.24247
C 12.51820 -0.15919 -1.71405
C 12.37002 2.29083 -4.21580
C 13.52113 -1.15166 -3.97023
C 14.85186 -1.35247 -3.28161
N 12.11429 -0.70656 1.18357
C 11.65706 -1.53111 0.13232
C 10.91442 -2.64994 0.74806
C 10.97191 -2.38423 2.12450
C 11.68172 -1.17381 2.34935
C 10.26011 -3.70077 0.04538
C 10.58440 -2.84687 3.43770
O 10.04177 -3.86010 3.87664
C 10.85679 -1.68226 4.48453
C 11.57564 -2.27699 5.66439
O 12.72287 -2.74008 5.53776
O 10.88245 -2.00573 6.78522
C 11.56144 -2.56573 7.98405
H 13.14044 4.81514 3.62554
H 14.50646 3.47297 -2.31955
H 11.55105 -2.04443 -1.81108
H 10.99960 1.05692 6.00605
H 12.48573 3.43263 5.71532
H 9.75606 2.62379 4.80162
H 10.55033 3.84446 3.78506
H 10.30233 4.20966 5.46577
H 13.97792 1.59879 6.04857
H 13.41868 -0.10796 6.18810
H 11.98061 1.45002 8.08868
H 13.54271 2.18322 8.00420
H 14.65670 6.21705 3.20562
H 14.92613 7.08912 1.73385
H 16.30663 6.22545 2.45153
H 16.30780 7.25178 -0.00969
H 17.61021 6.78522 -1.24774
H 17.56364 6.10290 0.40323
H 14.24551 1.42571 -3.81631
H 11.70767 -0.12361 -3.69083
H 12.87987 2.67884 -5.11779
H 11.97297 3.10466 -3.62372
H 11.46530 1.79102 -4.55766
H 13.74507 -0.84489 -4.99488
H 13.00249 -2.10299 -4.02495
H 15.47393 -0.56163 -3.71136
H 15.25485 -2.33785 -3.50672
H 14.77108 -1.16016 -2.20544
H 10.49441 -4.61827 0.56862
H 10.57864 -3.74254 -0.99412
H 9.21891 -3.38203 0.14315
H 9.89062 -1.26034 4.76395
H 10.83434 -3.20591 8.49317
H 11.94427 -1.69287 8.54557
H 12.37650 -3.26076 7.81952

