%nproc=24
%mem=175gb
#p cam-b3lyp/Def2SVP td=(nstates=5)

TDDFT excited states in gaussian

0 1
Mg 0.00000 0.00000 0.00000
C -0.21700 -2.21800 2.80100
C -1.25500 2.44200 2.02600
C -0.24500 1.85000 -2.56400
C 0.14600 -2.82400 -2.03700
N -0.61700 -0.00900 2.12600
C -0.59400 -0.90800 3.10500
C -0.93600 -0.30900 4.50200
C -1.77300 0.96400 4.03200
C -1.15500 1.16800 2.66000
C -3.26300 0.68500 3.86300
C 0.34500 0.11000 5.29900
C 0.12400 0.39700 6.78700
H 1.16800 0.03300 7.73300
N -0.18500 1.96100 -0.15200
C -0.70300 2.80000 0.77700
C -0.62000 4.15600 0.19300
C -0.18700 4.01500 -1.22500
C -0.21400 2.58300 -1.38000
C -0.88700 5.40600 0.97400
C 0.18100 5.01300 -2.27700
O 0.30300 4.69000 -3.50800
C 0.31000 6.41400 -1.83700
N -0.26500 -0.41300 -2.02900
C -0.27900 0.56900 -2.93700
C -0.19600 0.02400 -4.33200
C 0.12400 -1.53300 -4.18000
C 0.08600 -1.63200 -2.63500
C -1.45100 0.20500 -5.19700
C 1.37300 -2.07000 -4.92300
C 2.62600 -1.49000 -4.30600
N 0.15000 -2.14400 0.30300
C 0.17300 -3.13600 -0.68800
C 0.17300 -4.43800 0.00400
C 0.13300 -4.11100 1.35800
C 0.08300 -2.69500 1.50200
C 0.14900 -5.71500 -0.62300
C 0.09600 -4.62900 2.71600
O 0.20800 -5.74700 3.22100
C -0.25500 -3.42800 3.70100
C 0.71700 -3.48200 4.84800
O 1.93100 -3.25500 4.66900
O 0.03800 -3.55600 6.00300
C 0.94300 -3.58300 7.18300
H -1.85900 3.22000 2.49700
H -0.21800 2.45300 -3.47400
H 0.27600 -3.74700 -2.60500
H -1.55400 -0.94900 5.13200
H -1.58500 1.83100 4.66500
H -3.48400 -0.37700 3.96900
H -3.51100 1.02700 2.85800
H -3.85200 1.30100 4.54300
H 0.66900 1.09600 4.96600
H 1.13000 -0.63900 5.18900
H -0.84400 0.02600 7.12500
H 0.06200 1.47700 6.92100
H -1.34400 5.18600 1.93800
H -1.65100 5.96300 0.43200
H 0.00700 6.02000 1.08400
H -0.63500 6.74400 -1.40500
H 0.66500 6.97000 -2.70400
H 1.04800 6.46600 -1.03600
H 0.60800 0.50100 -4.89100
H -0.69200 -2.15600 -4.54700
H -1.26700 0.74000 -6.12900
H -2.20400 0.71400 -4.59600
H -1.96700 -0.72000 -5.45300
H 1.35600 -1.75900 -5.96700
H 1.45200 -3.15700 -4.90200
H 2.71400 -0.52200 -4.79800
H 3.48700 -2.12100 -4.52900
H 2.49500 -1.30300 -3.24000
H 0.86700 -6.33300 -0.08400
H 0.40400 -5.64200 -1.68000
H -0.89100 -5.99900 -0.46300
H -1.28300 -3.58100 4.02800
H 0.69800 -4.47800 7.75500
H 0.83300 -2.61900 7.68000
H 2.00000 -3.75400 6.97600
Mg 31.54059 2.83213 2.39351
C 31.60742 2.81168 -1.19455
C 30.97057 -0.52792 2.25322
C 31.02870 2.88868 5.52436
C 30.97506 6.26688 2.22500
N 31.33672 1.43579 0.69031
C 31.44213 1.53125 -0.62655
C 31.44658 0.16960 -1.37183
C 30.67709 -0.70991 -0.27037
C 31.04150 0.08954 0.97893
C 29.16596 -0.68550 -0.42913
C 32.89860 -0.36865 -1.62470
C 32.98978 -1.53266 -2.61390
H 34.15254 -1.60864 -3.49406
N 31.55582 1.35977 3.72411
C 31.32606 0.05042 3.49155
C 31.43231 -0.61515 4.79918
C 31.58052 0.43090 5.84729
C 31.36858 1.62731 5.05748
C 31.46878 -2.10807 4.95178
C 31.85350 0.36473 7.31946
O 31.70473 1.38679 8.07848
C 32.20981 -0.95464 7.86150
N 30.86081 4.31318 3.68454
C 30.78036 4.09263 5.00847
C 30.53257 5.37790 5.76151
C 30.70490 6.54714 4.68413
C 30.94517 5.69300 3.41996
C 29.16509 5.50244 6.43299
C 31.72301 7.67063 5.02158
C 33.12801 7.11267 5.01586
N 31.50867 4.32860 0.83543
C 31.22516 5.70441 0.97983
C 31.21074 6.29061 -0.37612
C 31.46613 5.20211 -1.22373
C 31.60824 4.01728 -0.45206
C 30.93585 7.65120 -0.69132
C 31.63726 4.78411 -2.59656
O 31.70945 5.36477 -3.67886
C 31.61088 3.19570 -2.64821
C 32.77023 2.73905 -3.49076
O 33.93975 2.93367 -3.11534
O 32.31097 1.96038 -4.48732
C 33.42495 1.47380 -5.34411
H 30.56462 -1.53779 2.31853
H 30.94971 2.98421 6.60977
H 30.90320 7.34883 2.09506
H 30.89655 0.16081 -2.30520
H 31.08549 -1.71549 -0.21215
H 28.85178 0.01662 -1.18707
H 28.77317 -0.39939 0.53777
H 28.79064 -1.69493 -0.62021
H 33.25946 -0.86619 -0.71532
H 33.54953 0.42409 -1.93852
H 32.06403 -1.65887 -3.18837
H 33.08281 -2.46266 -2.04780
H 31.17390 -2.61452 4.02444
H 30.68474 -2.37549 5.66845
H 32.42860 -2.46983 5.32668
H 31.40813 -1.65916 7.65313
H 32.45473 -0.78279 8.91143
H 33.09677 -1.32195 7.33330
H 31.26563 5.51323 6.54726
H 29.76380 7.09254 4.52068
H 29.22878 5.68851 7.52175
H 28.60349 4.59942 6.23375
H 28.51660 6.27353 6.02057
H 31.54493 8.05278 6.02976
H 31.67390 8.51601 4.34341
H 33.22393 6.67533 6.01417
H 33.85515 7.90734 4.86155
H 33.22511 6.29831 4.28851
H 31.66139 7.95105 -1.43576
H 30.98840 8.28266 0.19314
H 29.91465 7.56093 -1.07115
H 30.65234 2.89768 -3.07477
H 33.19062 1.76963 -6.37137
H 33.50846 0.39004 -5.13862
H 34.39794 1.93150 -5.20895

