%nproc=24
%mem=175gb
#p cam-b3lyp/Def2SVP td=(nstates=5)

TDDFT excited states in gaussian

0 1
Mg 0.00000 0.00000 0.00000
C -0.21700 -2.21800 2.80100
C -1.25500 2.44200 2.02600
C -0.24500 1.85000 -2.56400
C 0.14600 -2.82400 -2.03700
N -0.61700 -0.00900 2.12600
C -0.59400 -0.90800 3.10500
C -0.93600 -0.30900 4.50200
C -1.77300 0.96400 4.03200
C -1.15500 1.16800 2.66000
C -3.26300 0.68500 3.86300
C 0.34500 0.11000 5.29900
C 0.12400 0.39700 6.78700
H 1.16800 0.03300 7.73300
N -0.18500 1.96100 -0.15200
C -0.70300 2.80000 0.77700
C -0.62000 4.15600 0.19300
C -0.18700 4.01500 -1.22500
C -0.21400 2.58300 -1.38000
C -0.88700 5.40600 0.97400
C 0.18100 5.01300 -2.27700
O 0.30300 4.69000 -3.50800
C 0.31000 6.41400 -1.83700
N -0.26500 -0.41300 -2.02900
C -0.27900 0.56900 -2.93700
C -0.19600 0.02400 -4.33200
C 0.12400 -1.53300 -4.18000
C 0.08600 -1.63200 -2.63500
C -1.45100 0.20500 -5.19700
C 1.37300 -2.07000 -4.92300
C 2.62600 -1.49000 -4.30600
N 0.15000 -2.14400 0.30300
C 0.17300 -3.13600 -0.68800
C 0.17300 -4.43800 0.00400
C 0.13300 -4.11100 1.35800
C 0.08300 -2.69500 1.50200
C 0.14900 -5.71500 -0.62300
C 0.09600 -4.62900 2.71600
O 0.20800 -5.74700 3.22100
C -0.25500 -3.42800 3.70100
C 0.71700 -3.48200 4.84800
O 1.93100 -3.25500 4.66900
O 0.03800 -3.55600 6.00300
C 0.94300 -3.58300 7.18300
H -1.85900 3.22000 2.49700
H -0.21800 2.45300 -3.47400
H 0.27600 -3.74700 -2.60500
H -1.55400 -0.94900 5.13200
H -1.58500 1.83100 4.66500
H -3.48400 -0.37700 3.96900
H -3.51100 1.02700 2.85800
H -3.85200 1.30100 4.54300
H 0.66900 1.09600 4.96600
H 1.13000 -0.63900 5.18900
H -0.84400 0.02600 7.12500
H 0.06200 1.47700 6.92100
H -1.34400 5.18600 1.93800
H -1.65100 5.96300 0.43200
H 0.00700 6.02000 1.08400
H -0.63500 6.74400 -1.40500
H 0.66500 6.97000 -2.70400
H 1.04800 6.46600 -1.03600
H 0.60800 0.50100 -4.89100
H -0.69200 -2.15600 -4.54700
H -1.26700 0.74000 -6.12900
H -2.20400 0.71400 -4.59600
H -1.96700 -0.72000 -5.45300
H 1.35600 -1.75900 -5.96700
H 1.45200 -3.15700 -4.90200
H 2.71400 -0.52200 -4.79800
H 3.48700 -2.12100 -4.52900
H 2.49500 -1.30300 -3.24000
H 0.86700 -6.33300 -0.08400
H 0.40400 -5.64200 -1.68000
H -0.89100 -5.99900 -0.46300
H -1.28300 -3.58100 4.02800
H 0.69800 -4.47800 7.75500
H 0.83300 -2.61900 7.68000
H 2.00000 -3.75400 6.97600
Mg 15.77267 1.42302 1.20530
C 15.63139 -1.29095 3.54912
C 14.52233 3.42081 3.67108
C 15.46054 3.72554 -0.95534
C 15.91099 -0.96004 -1.33391
N 15.19252 1.00326 3.29802
C 15.24072 -0.05160 4.09759
C 14.92530 0.25478 5.58628
C 14.05600 1.58892 5.37826
C 14.64569 2.06035 4.05059
C 12.57511 1.31642 5.17320
C 16.22039 0.53811 6.42562
C 16.01628 0.53967 7.94223
H 17.08756 0.02255 8.78924
N 15.56232 3.38265 1.43806
C 15.05759 4.02496 2.51228
C 15.09945 5.45762 2.18075
C 15.51679 5.59813 0.75921
C 15.50911 4.20981 0.34376
C 14.83921 6.53504 3.19311
C 15.85315 6.78653 -0.08978
O 15.95903 6.69553 -1.36388
C 15.96288 8.07800 0.60416
N 15.48319 1.39500 -0.85328
C 15.43427 2.53775 -1.56014
C 15.49672 2.26440 -3.04398
C 15.84284 0.70901 -3.18011
C 15.83214 0.31572 -1.68659
C 14.22350 2.57300 -3.83142
C 17.08609 0.33675 -4.03360
C 18.34514 0.81675 -3.34820
N 15.95879 -0.72686 1.09836
C 15.97046 -1.52513 -0.06642
C 15.99943 -2.93540 0.37256
C 15.97919 -2.85966 1.77340
C 15.91997 -1.49886 2.17862
C 15.99048 -4.07322 -0.48266
C 15.98374 -3.62179 3.00134
O 16.11167 -4.81228 3.28439
C 15.63108 -2.64433 4.20408
C 16.62349 -2.88886 5.30764
O 17.82741 -2.62259 5.14545
O 15.95959 -3.18964 6.43863
C 16.90077 -3.42990 7.56481
H 13.92329 4.08201 4.29786
H 15.46406 4.48392 -1.74168
H 16.05410 -1.75970 -2.06380
H 14.33328 -0.50001 6.08984
H 14.25333 2.31520 6.16243
H 12.36849 0.26033 5.08307
H 12.30412 1.83404 4.26233
H 11.99163 1.78481 5.97101
H 16.52290 1.58249 6.27567
H 17.00056 -0.15105 6.16672
H 15.05336 0.09981 8.22900
H 15.94946 1.57596 8.28230
H 14.39540 6.12711 4.10964
H 14.05882 7.18202 2.77808
H 15.72466 7.13904 3.40248
H 15.02390 8.29924 1.10600
H 16.29653 8.78952 -0.15366
H 16.72503 7.99110 1.38658
H 16.28512 2.84202 -3.51077
H 15.02508 0.14993 -3.65816
H 14.38512 3.28867 -4.65953
H 13.47920 2.95014 -3.14271
H 13.72370 1.70577 -4.25959
H 17.04686 0.84349 -5.00098
H 17.17224 -0.72667 -4.23035
H 18.40601 1.86642 -3.65081
H 19.20918 0.25471 -3.69690
H 18.23291 0.79396 -2.25800
H 16.71875 -4.76741 -0.08490
H 16.22053 -3.79994 -1.51037
H 14.95257 -4.39646 -0.36638
H 14.60939 -2.86423 4.51615
H 16.67412 -4.42327 7.96422
H 16.77293 -2.57048 8.24951
H 17.95270 -3.53312 7.32553

