%nproc=24
%mem=175gb
#p cam-b3lyp/Def2SVP td=(nstates=5)

TDDFT excited states in gaussian

0 1
Mg 0.00000 0.00000 0.00000
C -0.21700 -2.21800 2.80100
C -1.25500 2.44200 2.02600
C -0.24500 1.85000 -2.56400
C 0.14600 -2.82400 -2.03700
N -0.61700 -0.00900 2.12600
C -0.59400 -0.90800 3.10500
C -0.93600 -0.30900 4.50200
C -1.77300 0.96400 4.03200
C -1.15500 1.16800 2.66000
C -3.26300 0.68500 3.86300
C 0.34500 0.11000 5.29900
C 0.12400 0.39700 6.78700
H 1.16800 0.03300 7.73300
N -0.18500 1.96100 -0.15200
C -0.70300 2.80000 0.77700
C -0.62000 4.15600 0.19300
C -0.18700 4.01500 -1.22500
C -0.21400 2.58300 -1.38000
C -0.88700 5.40600 0.97400
C 0.18100 5.01300 -2.27700
O 0.30300 4.69000 -3.50800
C 0.31000 6.41400 -1.83700
N -0.26500 -0.41300 -2.02900
C -0.27900 0.56900 -2.93700
C -0.19600 0.02400 -4.33200
C 0.12400 -1.53300 -4.18000
C 0.08600 -1.63200 -2.63500
C -1.45100 0.20500 -5.19700
C 1.37300 -2.07000 -4.92300
C 2.62600 -1.49000 -4.30600
N 0.15000 -2.14400 0.30300
C 0.17300 -3.13600 -0.68800
C 0.17300 -4.43800 0.00400
C 0.13300 -4.11100 1.35800
C 0.08300 -2.69500 1.50200
C 0.14900 -5.71500 -0.62300
C 0.09600 -4.62900 2.71600
O 0.20800 -5.74700 3.22100
C -0.25500 -3.42800 3.70100
C 0.71700 -3.48200 4.84800
O 1.93100 -3.25500 4.66900
O 0.03800 -3.55600 6.00300
C 0.94300 -3.58300 7.18300
H -1.85900 3.22000 2.49700
H -0.21800 2.45300 -3.47400
H 0.27600 -3.74700 -2.60500
H -1.55400 -0.94900 5.13200
H -1.58500 1.83100 4.66500
H -3.48400 -0.37700 3.96900
H -3.51100 1.02700 2.85800
H -3.85200 1.30100 4.54300
H 0.66900 1.09600 4.96600
H 1.13000 -0.63900 5.18900
H -0.84400 0.02600 7.12500
H 0.06200 1.47700 6.92100
H -1.34400 5.18600 1.93800
H -1.65100 5.96300 0.43200
H 0.00700 6.02000 1.08400
H -0.63500 6.74400 -1.40500
H 0.66500 6.97000 -2.70400
H 1.04800 6.46600 -1.03600
H 0.60800 0.50100 -4.89100
H -0.69200 -2.15600 -4.54700
H -1.26700 0.74000 -6.12900
H -2.20400 0.71400 -4.59600
H -1.96700 -0.72000 -5.45300
H 1.35600 -1.75900 -5.96700
H 1.45200 -3.15700 -4.90200
H 2.71400 -0.52200 -4.79800
H 3.48700 -2.12100 -4.52900
H 2.49500 -1.30300 -3.24000
H 0.86700 -6.33300 -0.08400
H 0.40400 -5.64200 -1.68000
H -0.89100 -5.99900 -0.46300
H -1.28300 -3.58100 4.02800
H 0.69800 -4.47800 7.75500
H 0.83300 -2.61900 7.68000
H 2.00000 -3.75400 6.97600
Mg 15.77389 1.42426 1.20321
C 16.04111 -0.75535 4.04169
C 14.96664 3.91992 3.38372
C 15.09195 3.25372 -1.29789
C 15.47338 -1.42480 -0.78129
N 15.56398 1.45504 3.40485
C 15.75017 0.58186 4.38324
C 15.69627 1.19260 5.80930
C 14.80322 2.48678 5.48303
C 15.15457 2.66037 4.00685
C 13.30935 2.23004 5.59146
C 17.11661 1.59416 6.34164
C 17.17737 1.90829 7.83810
H 18.37911 1.53560 8.57930
N 15.60558 3.39669 1.06263
C 15.29343 4.25933 2.05242
C 15.27649 5.59350 1.43285
C 15.44209 5.43022 -0.03706
C 15.36373 3.98778 -0.15253
C 15.19420 6.86113 2.23271
C 15.62605 6.41084 -1.15542
O 15.51048 6.06142 -2.38317
C 15.85307 7.81104 -0.76889
N 15.13342 0.99216 -0.72693
C 14.96246 1.97008 -1.63378
C 14.76801 1.40142 -3.01913
C 15.08647 -0.16055 -2.89098
C 15.33400 -0.24429 -1.36878
C 13.37777 1.58898 -3.62612
C 16.16396 -0.73996 -3.84804
C 17.52212 -0.17565 -3.49824
N 15.94017 -0.70822 1.50808
C 15.75113 -1.72468 0.54623
C 15.85638 -3.01775 1.25286
C 16.07821 -2.66071 2.59144
C 16.08892 -1.24495 2.71400
C 15.70069 -4.30352 0.66237
C 16.29517 -3.15953 3.93040
O 16.47082 -4.27229 4.42501
C 16.15477 -1.94820 4.94988
C 17.32294 -1.99963 5.89605
O 18.48061 -1.81338 5.48166
O 16.86444 -2.04322 7.16026
C 17.98605 -2.08414 8.13604
H 14.48435 4.71419 3.95418
H 14.95917 3.83755 -2.21166
H 15.48888 -2.35957 -1.34577
H 15.20056 0.57570 6.54922
H 15.13248 3.34887 6.05728
H 13.09097 1.18525 5.75537
H 12.88485 2.56262 4.65325
H 12.87203 2.86947 6.36361
H 17.38801 2.57581 5.93243
H 17.84083 0.84037 6.10095
H 16.27869 1.56885 8.36734
H 17.16957 2.99352 7.96546
H 14.91554 6.66182 3.27483
H 14.35345 7.43788 1.83227
H 16.10210 7.46388 2.16138
H 15.01467 8.16123 -0.17146
H 16.05043 8.34331 -1.70142
H 16.73891 7.85718 -0.12563
H 15.46361 1.84549 -3.72059
H 14.19883 -0.77579 -3.09933
H 13.39354 2.11712 -4.59818
H 12.76328 2.12269 -2.91331
H 12.81214 0.67113 -3.77716
H 15.95800 -0.43745 -4.87771
H 16.21557 -1.82355 -3.83494
H 17.52913 0.78879 -4.01486
H 18.31337 -0.82600 -3.86567
H 17.59977 0.02555 -2.42346
H 16.48714 -4.92816 1.06462
H 15.74970 -4.25101 -0.42327
H 14.69864 -4.56054 1.01608
H 15.20243 -2.06519 5.46849
H 17.83241 -2.96822 8.76252
H 17.97775 -1.10052 8.64215
H 18.98095 -2.26983 7.74855

