%nproc=24
%mem=175gb
#p cam-b3lyp/Def2SVP td=(nstates=5)

TDDFT excited states in gaussian

0 1
Mg 0.00000 0.00000 0.00000
C -0.21700 -2.21800 2.80100
C -1.25500 2.44200 2.02600
C -0.24500 1.85000 -2.56400
C 0.14600 -2.82400 -2.03700
N -0.61700 -0.00900 2.12600
C -0.59400 -0.90800 3.10500
C -0.93600 -0.30900 4.50200
C -1.77300 0.96400 4.03200
C -1.15500 1.16800 2.66000
C -3.26300 0.68500 3.86300
C 0.34500 0.11000 5.29900
C 0.12400 0.39700 6.78700
H 1.16800 0.03300 7.73300
N -0.18500 1.96100 -0.15200
C -0.70300 2.80000 0.77700
C -0.62000 4.15600 0.19300
C -0.18700 4.01500 -1.22500
C -0.21400 2.58300 -1.38000
C -0.88700 5.40600 0.97400
C 0.18100 5.01300 -2.27700
O 0.30300 4.69000 -3.50800
C 0.31000 6.41400 -1.83700
N -0.26500 -0.41300 -2.02900
C -0.27900 0.56900 -2.93700
C -0.19600 0.02400 -4.33200
C 0.12400 -1.53300 -4.18000
C 0.08600 -1.63200 -2.63500
C -1.45100 0.20500 -5.19700
C 1.37300 -2.07000 -4.92300
C 2.62600 -1.49000 -4.30600
N 0.15000 -2.14400 0.30300
C 0.17300 -3.13600 -0.68800
C 0.17300 -4.43800 0.00400
C 0.13300 -4.11100 1.35800
C 0.08300 -2.69500 1.50200
C 0.14900 -5.71500 -0.62300
C 0.09600 -4.62900 2.71600
O 0.20800 -5.74700 3.22100
C -0.25500 -3.42800 3.70100
C 0.71700 -3.48200 4.84800
O 1.93100 -3.25500 4.66900
O 0.03800 -3.55600 6.00300
C 0.94300 -3.58300 7.18300
H -1.85900 3.22000 2.49700
H -0.21800 2.45300 -3.47400
H 0.27600 -3.74700 -2.60500
H -1.55400 -0.94900 5.13200
H -1.58500 1.83100 4.66500
H -3.48400 -0.37700 3.96900
H -3.51100 1.02700 2.85800
H -3.85200 1.30100 4.54300
H 0.66900 1.09600 4.96600
H 1.13000 -0.63900 5.18900
H -0.84400 0.02600 7.12500
H 0.06200 1.47700 6.92100
H -1.34400 5.18600 1.93800
H -1.65100 5.96300 0.43200
H 0.00700 6.02000 1.08400
H -0.63500 6.74400 -1.40500
H 0.66500 6.97000 -2.70400
H 1.04800 6.46600 -1.03600
H 0.60800 0.50100 -4.89100
H -0.69200 -2.15600 -4.54700
H -1.26700 0.74000 -6.12900
H -2.20400 0.71400 -4.59600
H -1.96700 -0.72000 -5.45300
H 1.35600 -1.75900 -5.96700
H 1.45200 -3.15700 -4.90200
H 2.71400 -0.52200 -4.79800
H 3.48700 -2.12100 -4.52900
H 2.49500 -1.30300 -3.24000
H 0.86700 -6.33300 -0.08400
H 0.40400 -5.64200 -1.68000
H -0.89100 -5.99900 -0.46300
H -1.28300 -3.58100 4.02800
H 0.69800 -4.47800 7.75500
H 0.83300 -2.61900 7.68000
H 2.00000 -3.75400 6.97600
Mg 31.54193 2.84288 2.39252
C 33.78161 0.71160 4.21474
C 32.85355 5.46328 4.13831
C 29.28078 4.68164 1.13809
C 29.66082 0.00312 1.65569
N 33.11083 2.94722 3.94813
C 33.93559 2.08073 4.51673
C 35.03662 2.72564 5.40070
C 34.29142 4.10610 5.74403
C 33.38360 4.20485 4.51978
C 33.41529 4.02508 6.98304
C 36.36905 2.97337 4.60996
C 37.58052 3.31212 5.48137
H 38.89279 2.82074 5.07033
N 31.43658 4.81791 2.22908
C 32.05129 5.73280 3.00779
C 31.63637 7.04577 2.48999
C 30.59708 6.83143 1.44662
C 30.37806 5.40530 1.58176
C 32.27244 8.33218 2.93043
C 29.90450 7.75897 0.49466
O 28.86386 7.39752 -0.16052
C 30.42457 9.13220 0.42217
N 29.62208 2.44374 1.70170
C 28.86803 3.41411 1.15607
C 27.64358 2.84043 0.48377
C 27.85720 1.25552 0.48212
C 29.18463 1.17827 1.26783
C 26.30533 3.17263 1.14342
C 27.76797 0.53478 -0.89093
C 28.92914 0.94717 -1.76671
N 31.76395 0.71284 2.67831
C 30.84502 -0.29664 2.31690
C 31.38534 -1.57697 2.81814
C 32.57924 -1.21765 3.46155
C 32.75943 0.18992 3.38545
C 30.75930 -2.84935 2.69472
C 33.72273 -1.70775 4.19704
O 34.15393 -2.82187 4.49119
C 34.48847 -0.46562 4.82723
C 35.95564 -0.62948 4.53897
O 36.37878 -0.58677 3.37032
O 36.63919 -0.59161 5.69728
C 38.10033 -0.73901 5.46239
H 33.03296 6.32032 4.78805
H 28.52362 5.25610 0.59940
H 29.18275 -0.93974 1.38160
H 35.25988 2.18658 6.31358
H 34.99121 4.93742 5.76785
H 33.34550 3.01624 7.36187
H 32.44063 4.38295 6.67804
H 33.77029 4.72775 7.74236
H 36.27947 3.90788 4.04127
H 36.59967 2.13617 3.98024
H 37.40147 3.09013 6.54043
H 37.73431 4.39367 5.45651
H 32.88967 8.18975 3.82605
H 31.46315 8.99247 3.26047
H 32.82557 8.82494 2.12798
H 30.37469 9.58973 1.40738
H 29.85903 9.61712 -0.37588
H 31.48455 9.09084 0.14768
H 27.56692 3.18576 -0.53993
H 27.10024 0.74171 1.09274
H 25.59410 3.67340 0.45971
H 26.49648 3.78930 2.01158
H 25.77961 2.32262 1.57504
H 26.85934 0.83564 -1.41822
H 27.75046 -0.54699 -0.81058
H 28.58831 1.89253 -2.19942
H 29.11007 0.20216 -2.53889
H 29.81940 1.16233 -1.16439
H 31.53296 -3.55092 2.41233
H 29.95494 -2.82732 1.96241
H 30.38386 -2.98158 3.71297
H 34.27963 -0.46077 5.89771
H 38.43765 -1.58524 6.06885
H 38.54061 0.25023 5.68888
H 38.42053 -1.04639 4.47373

