%nproc=24
%mem=175gb
#p cam-b3lyp/Def2SVP td=(nstates=5)

TDDFT excited states in gaussian

0 1
Mg 0.00000 0.00000 0.00000
C -0.21700 -2.21800 2.80100
C -1.25500 2.44200 2.02600
C -0.24500 1.85000 -2.56400
C 0.14600 -2.82400 -2.03700
N -0.61700 -0.00900 2.12600
C -0.59400 -0.90800 3.10500
C -0.93600 -0.30900 4.50200
C -1.77300 0.96400 4.03200
C -1.15500 1.16800 2.66000
C -3.26300 0.68500 3.86300
C 0.34500 0.11000 5.29900
C 0.12400 0.39700 6.78700
H 1.16800 0.03300 7.73300
N -0.18500 1.96100 -0.15200
C -0.70300 2.80000 0.77700
C -0.62000 4.15600 0.19300
C -0.18700 4.01500 -1.22500
C -0.21400 2.58300 -1.38000
C -0.88700 5.40600 0.97400
C 0.18100 5.01300 -2.27700
O 0.30300 4.69000 -3.50800
C 0.31000 6.41400 -1.83700
N -0.26500 -0.41300 -2.02900
C -0.27900 0.56900 -2.93700
C -0.19600 0.02400 -4.33200
C 0.12400 -1.53300 -4.18000
C 0.08600 -1.63200 -2.63500
C -1.45100 0.20500 -5.19700
C 1.37300 -2.07000 -4.92300
C 2.62600 -1.49000 -4.30600
N 0.15000 -2.14400 0.30300
C 0.17300 -3.13600 -0.68800
C 0.17300 -4.43800 0.00400
C 0.13300 -4.11100 1.35800
C 0.08300 -2.69500 1.50200
C 0.14900 -5.71500 -0.62300
C 0.09600 -4.62900 2.71600
O 0.20800 -5.74700 3.22100
C -0.25500 -3.42800 3.70100
C 0.71700 -3.48200 4.84800
O 1.93100 -3.25500 4.66900
O 0.03800 -3.55600 6.00300
C 0.94300 -3.58300 7.18300
H -1.85900 3.22000 2.49700
H -0.21800 2.45300 -3.47400
H 0.27600 -3.74700 -2.60500
H -1.55400 -0.94900 5.13200
H -1.58500 1.83100 4.66500
H -3.48400 -0.37700 3.96900
H -3.51100 1.02700 2.85800
H -3.85200 1.30100 4.54300
H 0.66900 1.09600 4.96600
H 1.13000 -0.63900 5.18900
H -0.84400 0.02600 7.12500
H 0.06200 1.47700 6.92100
H -1.34400 5.18600 1.93800
H -1.65100 5.96300 0.43200
H 0.00700 6.02000 1.08400
H -0.63500 6.74400 -1.40500
H 0.66500 6.97000 -2.70400
H 1.04800 6.46600 -1.03600
H 0.60800 0.50100 -4.89100
H -0.69200 -2.15600 -4.54700
H -1.26700 0.74000 -6.12900
H -2.20400 0.71400 -4.59600
H -1.96700 -0.72000 -5.45300
H 1.35600 -1.75900 -5.96700
H 1.45200 -3.15700 -4.90200
H 2.71400 -0.52200 -4.79800
H 3.48700 -2.12100 -4.52900
H 2.49500 -1.30300 -3.24000
H 0.86700 -6.33300 -0.08400
H 0.40400 -5.64200 -1.68000
H -0.89100 -5.99900 -0.46300
H -1.28300 -3.58100 4.02800
H 0.69800 -4.47800 7.75500
H 0.83300 -2.61900 7.68000
H 2.00000 -3.75400 6.97600
Mg 10.51392 0.93975 0.80622
C 7.82901 1.36853 3.14854
C 12.62001 2.06358 3.24261
C 12.82909 1.00249 -1.36253
C 8.12107 0.95554 -1.72750
N 10.15212 1.59951 2.88614
C 9.09924 1.66106 3.68739
C 9.43603 1.98059 5.16862
C 10.84050 2.72516 4.94067
C 11.25499 2.06792 3.62579
C 10.69797 4.21943 4.70363
C 9.60730 0.68414 6.03574
C 9.63078 0.92007 7.54754
H 9.02426 -0.08330 8.41809
N 12.48505 0.98287 1.03279
C 13.17193 1.45260 2.09526
C 14.59454 1.27842 1.76359
C 14.69420 0.81974 0.35136
C 13.31075 0.93984 -0.06306
C 15.69330 1.46525 2.76919
C 15.84635 0.36245 -0.49104
O 15.74301 0.23740 -1.76246
C 17.12514 0.15521 0.20411
N 10.50578 1.18599 -1.25816
C 11.64653 1.11947 -1.96682
C 11.36477 1.04909 -3.44873
C 9.78471 0.83749 -3.57606
C 9.39789 0.91484 -2.08282
C 11.78139 2.27312 -4.26395
C 9.30288 -0.38659 -4.40198
C 9.67280 -1.66769 -3.68971
N 8.35572 0.94013 0.70505
C 7.55636 0.97314 -0.45857
C 6.15014 1.07714 -0.01795
C 6.23112 1.12096 1.38206
C 7.59298 1.06968 1.78482
C 5.01516 1.16708 -0.87227
C 5.47482 1.20964 2.61041
O 4.27848 1.19249 2.89711
C 6.48261 1.50138 3.80441
C 6.15522 0.55825 4.92951
O 6.31476 -0.66756 4.79337
O 5.91667 1.27022 6.04601
C 5.59808 0.37824 7.19260
H 13.33273 2.61590 3.85567
H 13.58214 0.91565 -2.14920
H 7.31000 0.86717 -2.45347
H 8.73725 2.64711 5.65977
H 11.54886 2.48206 5.72838
H 9.66375 4.51564 4.60985
H 11.23485 4.42434 3.78666
H 11.21772 4.77682 5.48817
H 10.62083 0.28826 5.89159
H 8.85188 -0.03818 5.79443
H 9.27757 1.92376 7.81362
H 10.66986 0.90333 7.88527
H 15.32821 1.96275 3.67616
H 16.40493 2.17690 2.33675
H 16.21814 0.53510 2.99732
H 17.42898 1.08187 0.68521
H 17.80273 -0.25571 -0.54683
H 16.97404 -0.57933 1.00301
H 11.86999 0.20329 -3.89870
H 9.29799 1.69049 -4.07136
H 12.47796 2.03165 -5.08891
H 12.22401 2.99630 -3.59191
H 10.96003 2.83748 -4.70222
H 9.80851 -0.41277 -5.37039
H 8.23548 -0.38364 -4.59597
H 10.71232 -1.82667 -3.99175
H 9.03644 -2.48660 -4.01906
H 9.66285 -1.53035 -2.60220
H 4.26103 0.51110 -0.45819
H 5.26452 0.89184 -1.89493
H 4.78423 2.23156 -0.77836
H 6.35372 2.54489 4.09433
H 4.62941 0.69949 7.58777
H 6.46722 0.44519 7.87368
H 5.40264 -0.66556 6.97638

