%nproc=24
%mem=175gb
#p cam-b3lyp/Def2SVP td=(nstates=5)

TDDFT excited states in gaussian

0 1
Mg 0.00000 0.00000 0.00000
C -0.21700 -2.21800 2.80100
C -1.25500 2.44200 2.02600
C -0.24500 1.85000 -2.56400
C 0.14600 -2.82400 -2.03700
N -0.61700 -0.00900 2.12600
C -0.59400 -0.90800 3.10500
C -0.93600 -0.30900 4.50200
C -1.77300 0.96400 4.03200
C -1.15500 1.16800 2.66000
C -3.26300 0.68500 3.86300
C 0.34500 0.11000 5.29900
C 0.12400 0.39700 6.78700
H 1.16800 0.03300 7.73300
N -0.18500 1.96100 -0.15200
C -0.70300 2.80000 0.77700
C -0.62000 4.15600 0.19300
C -0.18700 4.01500 -1.22500
C -0.21400 2.58300 -1.38000
C -0.88700 5.40600 0.97400
C 0.18100 5.01300 -2.27700
O 0.30300 4.69000 -3.50800
C 0.31000 6.41400 -1.83700
N -0.26500 -0.41300 -2.02900
C -0.27900 0.56900 -2.93700
C -0.19600 0.02400 -4.33200
C 0.12400 -1.53300 -4.18000
C 0.08600 -1.63200 -2.63500
C -1.45100 0.20500 -5.19700
C 1.37300 -2.07000 -4.92300
C 2.62600 -1.49000 -4.30600
N 0.15000 -2.14400 0.30300
C 0.17300 -3.13600 -0.68800
C 0.17300 -4.43800 0.00400
C 0.13300 -4.11100 1.35800
C 0.08300 -2.69500 1.50200
C 0.14900 -5.71500 -0.62300
C 0.09600 -4.62900 2.71600
O 0.20800 -5.74700 3.22100
C -0.25500 -3.42800 3.70100
C 0.71700 -3.48200 4.84800
O 1.93100 -3.25500 4.66900
O 0.03800 -3.55600 6.00300
C 0.94300 -3.58300 7.18300
H -1.85900 3.22000 2.49700
H -0.21800 2.45300 -3.47400
H 0.27600 -3.74700 -2.60500
H -1.55400 -0.94900 5.13200
H -1.58500 1.83100 4.66500
H -3.48400 -0.37700 3.96900
H -3.51100 1.02700 2.85800
H -3.85200 1.30100 4.54300
H 0.66900 1.09600 4.96600
H 1.13000 -0.63900 5.18900
H -0.84400 0.02600 7.12500
H 0.06200 1.47700 6.92100
H -1.34400 5.18600 1.93800
H -1.65100 5.96300 0.43200
H 0.00700 6.02000 1.08400
H -0.63500 6.74400 -1.40500
H 0.66500 6.97000 -2.70400
H 1.04800 6.46600 -1.03600
H 0.60800 0.50100 -4.89100
H -0.69200 -2.15600 -4.54700
H -1.26700 0.74000 -6.12900
H -2.20400 0.71400 -4.59600
H -1.96700 -0.72000 -5.45300
H 1.35600 -1.75900 -5.96700
H 1.45200 -3.15700 -4.90200
H 2.71400 -0.52200 -4.79800
H 3.48700 -2.12100 -4.52900
H 2.49500 -1.30300 -3.24000
H 0.86700 -6.33300 -0.08400
H 0.40400 -5.64200 -1.68000
H -0.89100 -5.99900 -0.46300
H -1.28300 -3.58100 4.02800
H 0.69800 -4.47800 7.75500
H 0.83300 -2.61900 7.68000
H 2.00000 -3.75400 6.97600
Mg 10.50083 0.94926 0.80016
C 8.71504 -1.86092 -0.53883
C 8.88237 2.88239 -1.49728
C 12.38154 3.35927 1.64999
C 12.76504 -1.31875 2.16953
N 9.01338 0.45865 -0.76159
C 8.36352 -0.63279 -1.13680
C 7.21988 -0.38201 -2.15600
C 7.75560 0.99526 -2.78448
C 8.57542 1.50203 -1.59967
C 8.69347 0.79430 -3.96318
C 5.82783 -0.19155 -1.45747
C 4.62260 -0.25091 -2.39856
H 3.38491 -0.85040 -1.90745
N 10.28731 2.90324 0.52637
C 9.57592 3.51616 -0.44293
C 9.75405 4.95950 -0.22114
C 10.76151 5.14745 0.85795
C 11.20761 3.78112 1.04297
C 8.94675 5.99934 -0.94253
C 11.25255 6.35844 1.59183
O 12.30347 6.32152 2.32466
C 10.52086 7.61110 1.35321
N 12.42317 1.02758 1.58807
C 12.98814 2.20253 1.91705
C 14.25278 1.99503 2.71580
C 14.29027 0.43445 3.06328
C 13.03159 -0.02601 2.29574
C 15.55327 2.39207 2.01759
C 14.42367 0.05023 4.56237
C 13.17058 0.44553 5.30996
N 10.62957 -1.19935 0.98712
C 11.67638 -1.94325 1.57436
C 11.36862 -3.37213 1.35983
C 10.16628 -3.35981 0.63684
C 9.76429 -2.01770 0.39884
C 12.17943 -4.46824 1.76878
C 9.15127 -4.17688 0.01166
O 8.91491 -5.38337 -0.03596
C 8.23232 -3.24167 -0.88685
C 6.79656 -3.57755 -0.58969
O 6.31499 -3.35447 0.53500
O 6.17332 -3.90190 -1.73718
C 4.74355 -4.23241 -1.49562
H 8.60308 3.53856 -2.32209
H 13.01194 4.15204 2.05936
H 13.37085 -2.08942 2.65091
H 7.12899 -1.13377 -2.93083
H 6.93625 1.67605 -3.00024
H 8.93898 -0.24704 -4.10972
H 9.58383 1.36390 -3.73111
H 8.27055 1.24956 -4.86331
H 5.74184 0.84511 -1.10721
H 5.70053 -0.90000 -0.66216
H 4.88608 -0.66299 -3.38025
H 4.30025 0.77060 -2.61443
H 8.40426 5.56871 -1.79322
H 9.65785 6.69657 -1.39870
H 8.28448 6.55576 -0.27585
H 10.54684 7.84801 0.29224
H 10.96351 8.34206 2.03265
H 9.46824 7.45683 1.61554
H 14.22395 2.56010 3.63936
H 15.14747 -0.06765 2.59112
H 16.14277 3.13755 2.58400
H 15.31080 2.76794 1.03247
H 16.22624 1.56691 1.79084
H 15.24689 0.60191 5.02291
H 14.61435 -1.00573 4.72230
H 13.33740 1.50451 5.52863
H 13.07084 -0.13542 6.22461
H 12.28832 0.37756 4.66293
H 11.51228 -5.20962 2.18803
H 12.93341 -4.15802 2.48923
H 12.62056 -4.75299 0.80983
H 8.49022 -3.43292 -1.92919
H 4.57320 -5.23273 -1.90554
H 4.16541 -3.40067 -1.94027
H 4.42723 -4.36826 -0.46804

