%nproc=24
%mem=175gb
#p cam-b3lyp/Def2SVP td=(nstates=5)

TDDFT excited states in gaussian

0 1
Mg 0.00000 0.00000 0.00000
C -0.21700 -2.21800 2.80100
C -1.25500 2.44200 2.02600
C -0.24500 1.85000 -2.56400
C 0.14600 -2.82400 -2.03700
N -0.61700 -0.00900 2.12600
C -0.59400 -0.90800 3.10500
C -0.93600 -0.30900 4.50200
C -1.77300 0.96400 4.03200
C -1.15500 1.16800 2.66000
C -3.26300 0.68500 3.86300
C 0.34500 0.11000 5.29900
C 0.12400 0.39700 6.78700
H 1.16800 0.03300 7.73300
N -0.18500 1.96100 -0.15200
C -0.70300 2.80000 0.77700
C -0.62000 4.15600 0.19300
C -0.18700 4.01500 -1.22500
C -0.21400 2.58300 -1.38000
C -0.88700 5.40600 0.97400
C 0.18100 5.01300 -2.27700
O 0.30300 4.69000 -3.50800
C 0.31000 6.41400 -1.83700
N -0.26500 -0.41300 -2.02900
C -0.27900 0.56900 -2.93700
C -0.19600 0.02400 -4.33200
C 0.12400 -1.53300 -4.18000
C 0.08600 -1.63200 -2.63500
C -1.45100 0.20500 -5.19700
C 1.37300 -2.07000 -4.92300
C 2.62600 -1.49000 -4.30600
N 0.15000 -2.14400 0.30300
C 0.17300 -3.13600 -0.68800
C 0.17300 -4.43800 0.00400
C 0.13300 -4.11100 1.35800
C 0.08300 -2.69500 1.50200
C 0.14900 -5.71500 -0.62300
C 0.09600 -4.62900 2.71600
O 0.20800 -5.74700 3.22100
C -0.25500 -3.42800 3.70100
C 0.71700 -3.48200 4.84800
O 1.93100 -3.25500 4.66900
O 0.03800 -3.55600 6.00300
C 0.94300 -3.58300 7.18300
H -1.85900 3.22000 2.49700
H -0.21800 2.45300 -3.47400
H 0.27600 -3.74700 -2.60500
H -1.55400 -0.94900 5.13200
H -1.58500 1.83100 4.66500
H -3.48400 -0.37700 3.96900
H -3.51100 1.02700 2.85800
H -3.85200 1.30100 4.54300
H 0.66900 1.09600 4.96600
H 1.13000 -0.63900 5.18900
H -0.84400 0.02600 7.12500
H 0.06200 1.47700 6.92100
H -1.34400 5.18600 1.93800
H -1.65100 5.96300 0.43200
H 0.00700 6.02000 1.08400
H -0.63500 6.74400 -1.40500
H 0.66500 6.97000 -2.70400
H 1.04800 6.46600 -1.03600
H 0.60800 0.50100 -4.89100
H -0.69200 -2.15600 -4.54700
H -1.26700 0.74000 -6.12900
H -2.20400 0.71400 -4.59600
H -1.96700 -0.72000 -5.45300
H 1.35600 -1.75900 -5.96700
H 1.45200 -3.15700 -4.90200
H 2.71400 -0.52200 -4.79800
H 3.48700 -2.12100 -4.52900
H 2.49500 -1.30300 -3.24000
H 0.86700 -6.33300 -0.08400
H 0.40400 -5.64200 -1.68000
H -0.89100 -5.99900 -0.46300
H -1.28300 -3.58100 4.02800
H 0.69800 -4.47800 7.75500
H 0.83300 -2.61900 7.68000
H 2.00000 -3.75400 6.97600
Mg 10.51199 0.93905 0.80612
C 7.95623 1.98144 3.09972
C 12.76517 1.45811 3.31378
C 12.82741 0.46164 -1.31008
C 8.26735 1.59668 -1.77745
N 10.26994 1.63056 2.89310
C 9.24434 1.93823 3.67274
C 9.61009 2.13692 5.16817
C 11.16126 2.51177 4.98859
C 11.43438 1.79576 3.66745
C 11.40145 3.99840 4.78472
C 9.43000 0.82330 6.00719
C 9.47079 1.01861 7.52440
H 8.61049 0.18264 8.35718
N 12.42503 0.48522 1.07609
C 13.17836 0.74960 2.16416
C 14.52127 0.23222 1.85911
C 14.54160 -0.21127 0.43868
C 13.24321 0.25745 -0.00243
C 15.60451 0.12100 2.89237
C 15.56595 -0.92613 -0.38950
O 15.46898 -0.99851 -1.66550
C 16.73379 -1.45819 0.32783
N 10.62089 1.21674 -1.25139
C 11.72784 0.88067 -1.93671
C 11.47739 0.90951 -3.42562
C 9.89839 1.10090 -3.59205
C 9.50296 1.24532 -2.10605
C 12.20723 2.00549 -4.20185
C 9.14952 0.05073 -4.45750
C 9.16974 -1.29478 -3.76859
N 8.42529 1.47938 0.65851
C 7.69087 1.73165 -0.52093
C 6.34343 2.17503 -0.10832
C 6.39510 2.17201 1.29375
C 7.69003 1.77552 1.72441
C 5.28993 2.56052 -0.98448
C 5.65191 2.42430 2.50730
O 4.48166 2.70083 2.76767
C 6.66810 2.43396 3.72945
C 6.08620 1.58212 4.82411
O 5.93932 0.35790 4.66185
O 6.00239 2.31082 5.95209
C 5.44115 1.50592 7.06966
H 13.57617 1.80412 3.95522
H 13.55604 0.20397 -2.08222
H 7.47963 1.72645 -2.52265
H 9.08619 2.94766 5.66011
H 11.76540 2.08555 5.78528
H 10.47637 4.54477 4.67586
H 11.99688 4.07948 3.88475
H 12.02226 4.39435 5.59351
H 10.31664 0.18987 5.87539
H 8.52538 0.31663 5.73227
H 9.37141 2.07370 7.80699
H 10.46355 0.73722 7.88394
H 15.35044 0.67739 3.80302
H 16.48219 0.64042 2.49269
H 15.87507 -0.91459 3.10921
H 17.24559 -0.64540 0.83762
H 17.30775 -2.01147 -0.41804
H 16.38325 -2.14614 1.10530
H 11.76817 -0.02729 -3.88490
H 9.65272 2.05712 -4.07696
H 12.84373 1.61288 -5.01720
H 12.79765 2.58322 -3.50315
H 11.56423 2.76464 -4.64395
H 9.65858 -0.08322 -5.41514
H 8.12204 0.32324 -4.67431
H 10.14474 -1.70245 -4.05191
H 8.35872 -1.92307 -4.13127
H 9.16503 -1.17892 -2.67854
H 4.38544 2.10594 -0.60272
H 5.49036 2.25029 -2.00789
H 5.32869 3.64709 -0.86987
H 6.79517 3.47125 4.04165
H 4.57262 2.05138 7.45151
H 6.28097 1.34175 7.77073
H 4.99802 0.54790 6.82411

