%nproc=24
%mem=175gb
#p cam-b3lyp/Def2SVP td=(nstates=5)

TDDFT excited states in gaussian

0 1
Mg 0.00000 0.00000 0.00000
C -0.21700 -2.21800 2.80100
C -1.25500 2.44200 2.02600
C -0.24500 1.85000 -2.56400
C 0.14600 -2.82400 -2.03700
N -0.61700 -0.00900 2.12600
C -0.59400 -0.90800 3.10500
C -0.93600 -0.30900 4.50200
C -1.77300 0.96400 4.03200
C -1.15500 1.16800 2.66000
C -3.26300 0.68500 3.86300
C 0.34500 0.11000 5.29900
C 0.12400 0.39700 6.78700
H 1.16800 0.03300 7.73300
N -0.18500 1.96100 -0.15200
C -0.70300 2.80000 0.77700
C -0.62000 4.15600 0.19300
C -0.18700 4.01500 -1.22500
C -0.21400 2.58300 -1.38000
C -0.88700 5.40600 0.97400
C 0.18100 5.01300 -2.27700
O 0.30300 4.69000 -3.50800
C 0.31000 6.41400 -1.83700
N -0.26500 -0.41300 -2.02900
C -0.27900 0.56900 -2.93700
C -0.19600 0.02400 -4.33200
C 0.12400 -1.53300 -4.18000
C 0.08600 -1.63200 -2.63500
C -1.45100 0.20500 -5.19700
C 1.37300 -2.07000 -4.92300
C 2.62600 -1.49000 -4.30600
N 0.15000 -2.14400 0.30300
C 0.17300 -3.13600 -0.68800
C 0.17300 -4.43800 0.00400
C 0.13300 -4.11100 1.35800
C 0.08300 -2.69500 1.50200
C 0.14900 -5.71500 -0.62300
C 0.09600 -4.62900 2.71600
O 0.20800 -5.74700 3.22100
C -0.25500 -3.42800 3.70100
C 0.71700 -3.48200 4.84800
O 1.93100 -3.25500 4.66900
O 0.03800 -3.55600 6.00300
C 0.94300 -3.58300 7.18300
H -1.85900 3.22000 2.49700
H -0.21800 2.45300 -3.47400
H 0.27600 -3.74700 -2.60500
H -1.55400 -0.94900 5.13200
H -1.58500 1.83100 4.66500
H -3.48400 -0.37700 3.96900
H -3.51100 1.02700 2.85800
H -3.85200 1.30100 4.54300
H 0.66900 1.09600 4.96600
H 1.13000 -0.63900 5.18900
H -0.84400 0.02600 7.12500
H 0.06200 1.47700 6.92100
H -1.34400 5.18600 1.93800
H -1.65100 5.96300 0.43200
H 0.00700 6.02000 1.08400
H -0.63500 6.74400 -1.40500
H 0.66500 6.97000 -2.70400
H 1.04800 6.46600 -1.03600
H 0.60800 0.50100 -4.89100
H -0.69200 -2.15600 -4.54700
H -1.26700 0.74000 -6.12900
H -2.20400 0.71400 -4.59600
H -1.96700 -0.72000 -5.45300
H 1.35600 -1.75900 -5.96700
H 1.45200 -3.15700 -4.90200
H 2.71400 -0.52200 -4.79800
H 3.48700 -2.12100 -4.52900
H 2.49500 -1.30300 -3.24000
H 0.86700 -6.33300 -0.08400
H 0.40400 -5.64200 -1.68000
H -0.89100 -5.99900 -0.46300
H -1.28300 -3.58100 4.02800
H 0.69800 -4.47800 7.75500
H 0.83300 -2.61900 7.68000
H 2.00000 -3.75400 6.97600
Mg 8.93890 0.81117 0.68529
C 9.49061 -1.28281 3.54710
C 7.04040 2.80627 2.69771
C 8.06665 2.42397 -1.90420
C 9.89267 -1.88909 -1.30083
N 8.40891 0.67484 2.82837
C 8.72708 -0.13113 3.83012
C 8.26500 0.36504 5.22650
C 7.05272 1.30808 4.75756
C 7.54020 1.65180 3.35154
C 5.72898 0.57147 4.63737
C 9.37799 1.18612 5.96751
C 9.11049 1.43685 7.45322
H 10.24487 1.44642 8.37276
N 8.15070 2.62367 0.50606
C 7.42884 3.29209 1.42986
C 7.06325 4.57285 0.80524
C 7.48800 4.53750 -0.62062
C 7.90875 3.15557 -0.73614
C 6.44977 5.70713 1.57366
C 7.49999 5.57232 -1.70468
O 7.68850 5.25853 -2.93303
C 7.19188 6.95120 -1.29820
N 8.76881 0.27815 -1.31704
C 8.41969 1.18483 -2.24654
C 8.63034 0.64519 -3.64111
C 9.42466 -0.73019 -3.45414
C 9.45901 -0.79488 -1.91140
C 7.36167 0.39324 -4.45559
C 10.76156 -0.88192 -4.23024
C 11.78965 0.08039 -3.68035
N 9.75393 -1.16026 1.02772
C 10.05529 -2.13932 0.05576
C 10.47680 -3.35617 0.77966
C 10.36851 -3.00523 2.13376
C 9.89248 -1.67096 2.24611
C 10.84360 -4.59474 0.18173
C 10.53853 -3.46364 3.49378
O 10.99729 -4.47795 4.01766
C 9.85715 -2.41116 4.47072
C 10.82388 -2.11839 5.58528
O 11.90253 -1.54505 5.35207
O 10.22474 -2.36524 6.76446
C 11.14022 -2.07911 7.90105
H 6.24426 3.37279 3.18156
H 7.88441 2.97154 -2.83180
H 10.29921 -2.74144 -1.84936
H 7.89787 -0.41207 5.88611
H 6.99016 2.20440 5.36917
H 5.84662 -0.49332 4.77351
H 5.36144 0.78739 3.64271
H 4.99626 0.99775 5.32855
H 9.36676 2.21945 5.59758
H 10.33774 0.72262 5.84634
H 8.30700 0.79877 7.84078
H 8.72574 2.45290 7.56990
H 6.10244 5.38200 2.56212
H 5.53429 5.99349 1.04473
H 7.10740 6.57664 1.63805
H 6.20659 6.98074 -0.83908
H 7.33721 7.55912 -2.19329
H 7.90774 7.25683 -0.52699
H 9.23529 1.32302 -4.23078
H 8.83122 -1.59258 -3.79169
H 7.34491 0.93949 -5.41757
H 6.50746 0.66428 -3.84946
H 7.16000 -0.65173 -4.68488
H 10.62115 -0.61875 -5.28152
H 11.16592 -1.88823 -4.20142
H 11.55345 1.01555 -4.19685
H 12.79635 -0.25797 -3.91723
H 11.63731 0.24857 -2.60789
H 11.72402 -4.94417 0.70448
H 11.03176 -4.48150 -0.88389
H 9.94235 -5.18121 0.37938
H 8.93168 -2.85642 4.83791
H 11.19699 -2.99130 8.50302
H 10.73283 -1.17572 8.39266
H 12.18612 -1.91131 7.67218

