%nproc=24
%mem=175gb
#p cam-b3lyp/Def2SVP td=(nstates=5)

TDDFT excited states in gaussian

0 1
Mg 15.77209 1.41517 1.20545
C 13.24100 0.76667 3.66554
C 17.27652 3.43762 3.50349
C 17.76497 2.35848 -1.07622
C 13.51863 0.29631 -1.20614
N 15.23280 1.95196 3.28229
C 14.28185 1.59599 4.13278
C 14.49913 2.09533 5.58640
C 15.44265 3.35551 5.26926
C 16.05400 2.87815 3.95357
C 14.66782 4.63467 4.99957
C 15.23646 1.03579 6.47844
C 15.20736 1.32766 7.98034
H 15.11682 0.20224 8.90647
N 17.54238 2.30310 1.33286
C 17.99789 3.06814 2.34702
C 19.34670 3.50094 1.95008
C 19.58552 3.06467 0.54746
C 18.27031 2.56578 0.19901
C 20.29331 4.18295 2.89464
C 20.79380 3.10333 -0.33841
O 20.71141 2.88862 -1.59933
C 22.06103 3.49168 0.29785
N 15.59072 1.54055 -0.86185
C 16.62628 1.93361 -1.62411
C 16.35230 1.68286 -3.08782
C 15.01066 0.81354 -3.13101
C 14.67790 0.78665 -1.62305
C 16.17884 2.92942 -3.95522
C 15.07047 -0.53532 -3.89891
C 15.97559 -1.50349 -3.17172
N 13.81838 0.49265 1.21134
C 13.04316 0.12955 0.08828
C 11.74276 -0.35476 0.59507
C 11.84393 -0.21715 1.98766
C 13.10986 0.33423 2.32370
C 10.65028 -0.79516 -0.20409
C 11.16363 -0.40302 3.24915
O 10.09949 -0.91453 3.59512
C 11.98952 0.34366 4.38351
C 12.13398 -0.59699 5.54834
O 12.79709 -1.64322 5.43740
O 11.65163 -0.00431 6.65578
C 11.78291 -0.89401 7.84027
H 17.70513 4.26790 4.06546
H 18.45628 2.56468 -1.89662
H 12.79926 -0.16161 -1.88841
H 13.59945 2.42273 6.09350
H 16.21282 3.47294 6.02715
H 13.60366 4.45810 4.94923
H 15.03485 5.00668 4.05197
H 14.92561 5.39522 5.74216
H 16.31655 1.10268 6.29493
H 14.85427 0.05057 6.29431
H 14.46844 2.09661 8.23657
H 16.16469 1.76996 8.26651
H 19.78120 4.51845 3.80491
H 20.61800 5.10932 2.40855
H 21.17239 3.57592 3.12136
H 21.95589 4.48033 0.73828
H 22.82373 3.37448 -0.47443
H 22.26483 2.79976 1.12267
H 17.15502 1.11293 -3.53941
H 14.19006 1.35494 -3.62430
H 16.88388 2.97010 -4.80690
H 16.29239 3.80189 -3.32558
H 15.18103 3.07014 -4.36725
H 15.50623 -0.38781 -4.89012
H 14.09822 -0.99561 -4.03979
H 16.97272 -1.21860 -3.52051
H 15.73929 -2.52935 -3.44706
H 15.94422 -1.33422 -2.08913
H 10.26278 -1.69013 0.26429
H 10.95903 -0.98426 -1.23009
H 9.99015 0.07295 -0.12744
H 11.43709 1.24513 4.65135
H 10.78360 -0.99786 8.27417
H 12.56240 -0.43278 8.47541
H 12.04485 -1.93039 7.66207

