%nproc=24
%mem=175gb
#p cam-b3lyp/Def2SVP td=(nstates=5)

TDDFT excited states in gaussian

0 1
Mg 0.00000 0.00000 0.00000
C -0.21700 -2.21800 2.80100
C -1.25500 2.44200 2.02600
C -0.24500 1.85000 -2.56400
C 0.14600 -2.82400 -2.03700
N -0.61700 -0.00900 2.12600
C -0.59400 -0.90800 3.10500
C -0.93600 -0.30900 4.50200
C -1.77300 0.96400 4.03200
C -1.15500 1.16800 2.66000
C -3.26300 0.68500 3.86300
C 0.34500 0.11000 5.29900
C 0.12400 0.39700 6.78700
H 1.16800 0.03300 7.73300
N -0.18500 1.96100 -0.15200
C -0.70300 2.80000 0.77700
C -0.62000 4.15600 0.19300
C -0.18700 4.01500 -1.22500
C -0.21400 2.58300 -1.38000
C -0.88700 5.40600 0.97400
C 0.18100 5.01300 -2.27700
O 0.30300 4.69000 -3.50800
C 0.31000 6.41400 -1.83700
N -0.26500 -0.41300 -2.02900
C -0.27900 0.56900 -2.93700
C -0.19600 0.02400 -4.33200
C 0.12400 -1.53300 -4.18000
C 0.08600 -1.63200 -2.63500
C -1.45100 0.20500 -5.19700
C 1.37300 -2.07000 -4.92300
C 2.62600 -1.49000 -4.30600
N 0.15000 -2.14400 0.30300
C 0.17300 -3.13600 -0.68800
C 0.17300 -4.43800 0.00400
C 0.13300 -4.11100 1.35800
C 0.08300 -2.69500 1.50200
C 0.14900 -5.71500 -0.62300
C 0.09600 -4.62900 2.71600
O 0.20800 -5.74700 3.22100
C -0.25500 -3.42800 3.70100
C 0.71700 -3.48200 4.84800
O 1.93100 -3.25500 4.66900
O 0.03800 -3.55600 6.00300
C 0.94300 -3.58300 7.18300
H -1.85900 3.22000 2.49700
H -0.21800 2.45300 -3.47400
H 0.27600 -3.74700 -2.60500
H -1.55400 -0.94900 5.13200
H -1.58500 1.83100 4.66500
H -3.48400 -0.37700 3.96900
H -3.51100 1.02700 2.85800
H -3.85200 1.30100 4.54300
H 0.66900 1.09600 4.96600
H 1.13000 -0.63900 5.18900
H -0.84400 0.02600 7.12500
H 0.06200 1.47700 6.92100
H -1.34400 5.18600 1.93800
H -1.65100 5.96300 0.43200
H 0.00700 6.02000 1.08400
H -0.63500 6.74400 -1.40500
H 0.66500 6.97000 -2.70400
H 1.04800 6.46600 -1.03600
H 0.60800 0.50100 -4.89100
H -0.69200 -2.15600 -4.54700
H -1.26700 0.74000 -6.12900
H -2.20400 0.71400 -4.59600
H -1.96700 -0.72000 -5.45300
H 1.35600 -1.75900 -5.96700
H 1.45200 -3.15700 -4.90200
H 2.71400 -0.52200 -4.79800
H 3.48700 -2.12100 -4.52900
H 2.49500 -1.30300 -3.24000
H 0.86700 -6.33300 -0.08400
H 0.40400 -5.64200 -1.68000
H -0.89100 -5.99900 -0.46300
H -1.28300 -3.58100 4.02800
H 0.69800 -4.47800 7.75500
H 0.83300 -2.61900 7.68000
H 2.00000 -3.75400 6.97600
Mg 10.51837 0.94018 0.80278
C 10.73242 -1.70099 -1.61744
C 9.67456 -1.43562 3.10020
C 9.88326 3.28334 2.84574
C 10.25073 3.17141 -1.86099
N 10.26898 -1.25162 0.64140
C 10.43672 -2.15300 -0.31449
C 10.35781 -3.62585 0.16930
C 9.47205 -3.39824 1.48933
C 9.85002 -1.94940 1.79048
C 7.97622 -3.45717 1.22791
C 11.76877 -4.21649 0.51912
C 11.80295 -5.73554 0.70099
H 12.99082 -6.46256 0.26182
N 10.35456 0.91060 2.78037
C 10.02554 -0.14517 3.55392
C 10.02105 0.35549 4.93721
C 10.21285 1.83086 4.90271
C 10.13515 2.07349 3.47611
C 9.92566 -0.55063 6.13022
C 10.41784 2.85568 5.97692
O 10.32398 4.11116 5.73653
C 10.63926 2.34412 7.33736
N 9.91223 2.91182 0.54281
C 9.75856 3.73252 1.59674
C 9.58845 5.16556 1.15193
C 9.90301 5.16893 -0.41607
C 10.12309 3.65573 -0.63327
C 8.20952 5.77846 1.39542
C 10.99695 6.15369 -0.91229
C 12.34916 5.73173 -0.38421
N 10.67704 0.82018 -1.34861
C 10.50430 1.87049 -2.27656
C 10.59556 1.27796 -3.62674
C 10.79368 -0.09047 -3.38873
C 10.80358 -0.33661 -1.98915
C 10.44923 1.98138 -4.85553
C 10.98606 -1.38429 -4.00331
O 11.15170 -1.78268 -5.15552
C 10.82857 -2.50320 -2.88544
C 11.97952 -3.46188 -3.02243
O 13.14462 -3.08605 -2.80360
O 11.49834 -4.70907 -3.17527
C 12.60221 -5.69733 -3.30425
H 9.18289 -2.06472 3.84274
H 9.76749 4.14474 3.50760
H 10.27544 3.81516 -2.74284
H 9.84829 -4.30001 -0.50869
H 9.79179 -4.05148 2.29704
H 7.75390 -3.52512 0.17335
H 7.56897 -2.54425 1.64237
H 7.52574 -4.27440 1.79846
H 12.04844 -3.89964 1.53210
H 12.49645 -3.92369 -0.21257
H 10.89458 -6.21697 0.31885
H 11.79394 -5.95722 1.77094
H 9.62813 -1.56619 5.84123
H 9.09280 -0.18730 6.74194
H 10.83529 -0.54849 6.73457
H 9.79061 1.73336 7.63609
H 10.85386 3.22284 7.94865
H 11.51344 1.68363 7.32479
H 10.29698 5.81298 1.65388
H 9.01865 5.44609 -1.00846
H 8.24327 6.70014 2.00652
H 7.58285 5.03274 1.86630
H 7.64579 6.01928 0.49575
H 10.80981 7.15644 -0.52034
H 11.04724 6.23454 -1.99300
H 12.36640 6.16176 0.62170
H 13.14623 6.14051 -1.00195
H 12.40770 4.64226 -0.27799
H 11.22772 1.62138 -5.51497
H 10.51778 3.05721 -4.70839
H 9.44074 1.66941 -5.13995
H 9.86696 -2.99254 -3.04492
H 12.43647 -6.24121 -4.23935
H 12.58580 -6.28735 -2.36865
H 13.60372 -5.31285 -3.45788

