%nproc=24
%mem=175gb
#p cam-b3lyp/Def2SVP td=(nstates=5)

TDDFT excited states in gaussian

0 1
Mg 0.00000 0.00000 0.00000
C -0.21700 -2.21800 2.80100
C -1.25500 2.44200 2.02600
C -0.24500 1.85000 -2.56400
C 0.14600 -2.82400 -2.03700
N -0.61700 -0.00900 2.12600
C -0.59400 -0.90800 3.10500
C -0.93600 -0.30900 4.50200
C -1.77300 0.96400 4.03200
C -1.15500 1.16800 2.66000
C -3.26300 0.68500 3.86300
C 0.34500 0.11000 5.29900
C 0.12400 0.39700 6.78700
H 1.16800 0.03300 7.73300
N -0.18500 1.96100 -0.15200
C -0.70300 2.80000 0.77700
C -0.62000 4.15600 0.19300
C -0.18700 4.01500 -1.22500
C -0.21400 2.58300 -1.38000
C -0.88700 5.40600 0.97400
C 0.18100 5.01300 -2.27700
O 0.30300 4.69000 -3.50800
C 0.31000 6.41400 -1.83700
N -0.26500 -0.41300 -2.02900
C -0.27900 0.56900 -2.93700
C -0.19600 0.02400 -4.33200
C 0.12400 -1.53300 -4.18000
C 0.08600 -1.63200 -2.63500
C -1.45100 0.20500 -5.19700
C 1.37300 -2.07000 -4.92300
C 2.62600 -1.49000 -4.30600
N 0.15000 -2.14400 0.30300
C 0.17300 -3.13600 -0.68800
C 0.17300 -4.43800 0.00400
C 0.13300 -4.11100 1.35800
C 0.08300 -2.69500 1.50200
C 0.14900 -5.71500 -0.62300
C 0.09600 -4.62900 2.71600
O 0.20800 -5.74700 3.22100
C -0.25500 -3.42800 3.70100
C 0.71700 -3.48200 4.84800
O 1.93100 -3.25500 4.66900
O 0.03800 -3.55600 6.00300
C 0.94300 -3.58300 7.18300
H -1.85900 3.22000 2.49700
H -0.21800 2.45300 -3.47400
H 0.27600 -3.74700 -2.60500
H -1.55400 -0.94900 5.13200
H -1.58500 1.83100 4.66500
H -3.48400 -0.37700 3.96900
H -3.51100 1.02700 2.85800
H -3.85200 1.30100 4.54300
H 0.66900 1.09600 4.96600
H 1.13000 -0.63900 5.18900
H -0.84400 0.02600 7.12500
H 0.06200 1.47700 6.92100
H -1.34400 5.18600 1.93800
H -1.65100 5.96300 0.43200
H 0.00700 6.02000 1.08400
H -0.63500 6.74400 -1.40500
H 0.66500 6.97000 -2.70400
H 1.04800 6.46600 -1.03600
H 0.60800 0.50100 -4.89100
H -0.69200 -2.15600 -4.54700
H -1.26700 0.74000 -6.12900
H -2.20400 0.71400 -4.59600
H -1.96700 -0.72000 -5.45300
H 1.35600 -1.75900 -5.96700
H 1.45200 -3.15700 -4.90200
H 2.71400 -0.52200 -4.79800
H 3.48700 -2.12100 -4.52900
H 2.49500 -1.30300 -3.24000
H 0.86700 -6.33300 -0.08400
H 0.40400 -5.64200 -1.68000
H -0.89100 -5.99900 -0.46300
H -1.28300 -3.58100 4.02800
H 0.69800 -4.47800 7.75500
H 0.83300 -2.61900 7.68000
H 2.00000 -3.75400 6.97600
Mg 15.77053 1.42430 1.20604
C 14.92567 -0.86944 3.83359
C 13.97741 3.78485 2.89339
C 16.11656 3.33689 -1.30188
C 16.49887 -1.34155 -0.78526
N 14.64365 1.34700 3.10773
C 14.44416 0.43841 4.05060
C 13.75591 0.98131 5.33167
C 13.01649 2.25273 4.68699
C 13.95167 2.50674 3.50648
C 11.63473 1.93266 4.14146
C 14.79101 1.41402 6.42865
C 14.19276 1.66217 7.81511
H 14.98415 1.30394 8.98893
N 15.56977 3.39291 1.05485
C 14.81972 4.19684 1.83740
C 14.99435 5.55601 1.30229
C 15.77754 5.46614 0.04005
C 15.83509 4.02845 -0.13267
C 14.51044 6.78186 2.02099
C 16.36508 6.50291 -0.86885
O 16.80155 6.20519 -2.03662
C 16.32899 7.89202 -0.38867
N 16.03573 1.05518 -0.82269
C 16.21285 2.06568 -1.69186
C 16.65707 1.55315 -3.04107
C 16.97622 0.00075 -2.82712
C 16.55767 -0.14205 -1.34732
C 15.64851 1.71307 -4.17844
C 18.38832 -0.49178 -3.24670
C 19.43584 0.10920 -2.33735
N 15.90846 -0.71159 1.50104
C 16.20222 -1.69009 0.52619
C 16.06814 -3.00869 1.17868
C 15.68016 -2.70419 2.49217
C 15.55994 -1.29612 2.64179
C 16.24905 -4.27152 0.54730
C 15.33467 -3.25423 3.78321
O 15.34437 -4.38046 4.27842
C 14.70802 -2.09680 4.67432
C 15.36433 -2.14497 6.02690
O 16.57620 -1.89464 6.15067
O 14.41525 -2.26383 6.97320
C 15.01632 -2.30467 8.33293
H 13.25557 4.53282 3.22259
H 16.35277 3.95584 -2.17055
H 16.80411 -2.24845 -1.31160
H 13.02752 0.31247 5.77422
H 13.02260 3.10023 5.36749
H 11.42519 0.87372 4.17121
H 11.63155 2.29041 3.12016
H 10.87634 2.51871 4.66844
H 15.15616 2.42313 6.19822
H 15.58909 0.70104 6.50179
H 13.17452 1.26394 7.90198
H 14.07194 2.73937 7.95319
H 13.82679 6.52472 2.83946
H 13.88922 7.34258 1.31421
H 15.32796 7.42254 2.35843
H 15.29834 8.18146 -0.19776
H 16.87431 8.47336 -1.13469
H 16.85353 7.94386 0.57195
H 17.55924 2.05562 -3.36774
H 16.29653 -0.63894 -3.40907
H 16.04678 2.28492 -5.03777
H 14.76106 2.18930 -3.78326
H 15.25206 0.78142 -4.57852
H 18.62312 -0.15128 -4.25818
H 18.48895 -1.57197 -3.23905
H 19.60869 1.09558 -2.77811
H 20.34266 -0.49214 -2.34770
H 19.03825 0.26440 -1.32765
H 16.82307 -4.88226 1.23140
H 16.75176 -4.16799 -0.41205
H 15.20747 -4.58361 0.43335
H 13.63360 -2.27462 4.73406
H 14.65988 -3.22160 8.81240
H 14.73969 -1.34608 8.81076
H 16.09013 -2.43325 8.40258

