%nproc=24
%mem=175gb
#p cam-b3lyp/Def2SVP td=(nstates=5)

TDDFT excited states in gaussian

0 1
Mg 0.00000 0.00000 0.00000
C -0.21700 -2.21800 2.80100
C -1.25500 2.44200 2.02600
C -0.24500 1.85000 -2.56400
C 0.14600 -2.82400 -2.03700
N -0.61700 -0.00900 2.12600
C -0.59400 -0.90800 3.10500
C -0.93600 -0.30900 4.50200
C -1.77300 0.96400 4.03200
C -1.15500 1.16800 2.66000
C -3.26300 0.68500 3.86300
C 0.34500 0.11000 5.29900
C 0.12400 0.39700 6.78700
H 1.16800 0.03300 7.73300
N -0.18500 1.96100 -0.15200
C -0.70300 2.80000 0.77700
C -0.62000 4.15600 0.19300
C -0.18700 4.01500 -1.22500
C -0.21400 2.58300 -1.38000
C -0.88700 5.40600 0.97400
C 0.18100 5.01300 -2.27700
O 0.30300 4.69000 -3.50800
C 0.31000 6.41400 -1.83700
N -0.26500 -0.41300 -2.02900
C -0.27900 0.56900 -2.93700
C -0.19600 0.02400 -4.33200
C 0.12400 -1.53300 -4.18000
C 0.08600 -1.63200 -2.63500
C -1.45100 0.20500 -5.19700
C 1.37300 -2.07000 -4.92300
C 2.62600 -1.49000 -4.30600
N 0.15000 -2.14400 0.30300
C 0.17300 -3.13600 -0.68800
C 0.17300 -4.43800 0.00400
C 0.13300 -4.11100 1.35800
C 0.08300 -2.69500 1.50200
C 0.14900 -5.71500 -0.62300
C 0.09600 -4.62900 2.71600
O 0.20800 -5.74700 3.22100
C -0.25500 -3.42800 3.70100
C 0.71700 -3.48200 4.84800
O 1.93100 -3.25500 4.66900
O 0.03800 -3.55600 6.00300
C 0.94300 -3.58300 7.18300
H -1.85900 3.22000 2.49700
H -0.21800 2.45300 -3.47400
H 0.27600 -3.74700 -2.60500
H -1.55400 -0.94900 5.13200
H -1.58500 1.83100 4.66500
H -3.48400 -0.37700 3.96900
H -3.51100 1.02700 2.85800
H -3.85200 1.30100 4.54300
H 0.66900 1.09600 4.96600
H 1.13000 -0.63900 5.18900
H -0.84400 0.02600 7.12500
H 0.06200 1.47700 6.92100
H -1.34400 5.18600 1.93800
H -1.65100 5.96300 0.43200
H 0.00700 6.02000 1.08400
H -0.63500 6.74400 -1.40500
H 0.66500 6.97000 -2.70400
H 1.04800 6.46600 -1.03600
H 0.60800 0.50100 -4.89100
H -0.69200 -2.15600 -4.54700
H -1.26700 0.74000 -6.12900
H -2.20400 0.71400 -4.59600
H -1.96700 -0.72000 -5.45300
H 1.35600 -1.75900 -5.96700
H 1.45200 -3.15700 -4.90200
H 2.71400 -0.52200 -4.79800
H 3.48700 -2.12100 -4.52900
H 2.49500 -1.30300 -3.24000
H 0.86700 -6.33300 -0.08400
H 0.40400 -5.64200 -1.68000
H -0.89100 -5.99900 -0.46300
H -1.28300 -3.58100 4.02800
H 0.69800 -4.47800 7.75500
H 0.83300 -2.61900 7.68000
H 2.00000 -3.75400 6.97600
Mg 10.51731 0.95458 0.79968
C 9.97735 1.72429 4.26306
C 9.40563 4.09839 0.08186
C 10.55329 0.15872 -2.27160
C 10.48420 -2.41551 1.68687
N 9.81158 2.60538 2.09160
C 9.70846 2.80459 3.39698
C 9.37159 4.26527 3.80007
C 8.66797 4.73520 2.43517
C 9.35898 3.78129 1.46294
C 7.17494 4.45421 2.40002
C 10.65648 5.11259 4.10525
C 10.39446 6.45038 4.80053
H 11.36612 6.92743 5.78073
N 10.52148 2.09704 -0.82308
C 10.05102 3.35720 -0.93227
C 10.26800 3.74763 -2.33393
C 10.75408 2.55690 -3.08266
C 10.60540 1.53037 -2.07063
C 10.09202 5.15594 -2.82291
C 11.25606 2.37033 -4.48245
O 11.40090 1.20500 -4.99613
C 11.48415 3.59350 -5.26561
N 10.30758 -0.86249 -0.18855
C 10.41632 -0.93833 -1.52659
C 10.50560 -2.37404 -1.98611
C 10.67825 -3.24162 -0.65379
C 10.56440 -2.11606 0.39766
C 9.30748 -2.89412 -2.78009
C 11.90383 -4.19360 -0.58775
C 13.18129 -3.38717 -0.53147
N 10.46257 -0.16747 2.64523
C 10.42941 -1.57186 2.78898
C 10.28106 -1.85856 4.23058
C 10.21455 -0.59079 4.82794
C 10.29410 0.41495 3.82712
C 10.17679 -3.15225 4.81505
C 10.08445 0.12528 6.07654
O 10.06539 -0.19569 7.26412
C 9.79790 1.65512 5.75425
C 10.71210 2.48910 6.60938
O 11.94387 2.44977 6.44264
O 9.97448 3.35291 7.33057
C 10.83740 4.20981 8.18667
H 8.86125 4.97612 -0.26761
H 10.67363 -0.17115 -3.30610
H 10.56430 -3.44089 2.05408
H 8.67851 4.35986 4.62740
H 8.91541 5.76666 2.19801
H 6.85363 3.87583 3.25348
H 7.00035 3.90555 1.48376
H 6.61743 5.39009 2.30179
H 11.08108 5.47249 3.15925
H 11.36306 4.54133 4.67537
H 9.37737 6.51176 5.20635
H 10.43224 7.24439 4.05077
H 9.56918 5.77587 -2.08419
H 9.40690 5.11475 -3.67660
H 11.03132 5.61038 -3.14521
H 10.55733 4.15845 -5.33111
H 11.92581 3.25988 -6.20663
H 12.20022 4.22484 -4.72778
H 11.37211 -2.52459 -2.61825
H 9.82179 -3.91214 -0.49035
H 9.58158 -3.28416 -3.77850
H 8.58426 -2.09446 -2.86966
H 8.72980 -3.67387 -2.28666
H 11.96032 -4.80166 -1.49396
H 11.87655 -4.87493 0.25607
H 13.37259 -3.15419 -1.58323
H 13.98908 -3.97844 -0.10493
H 13.02447 -2.43759 -0.00674
H 10.80548 -3.14771 5.69552
H 10.47651 -3.92987 4.11558
H 9.10516 -3.18368 5.02929
H 8.74642 1.84470 5.97337
H 10.48409 4.09200 9.21574
H 10.78102 5.22365 7.74769
H 11.87942 3.92966 8.28743

