%nproc=24
%mem=175gb
#p cam-b3lyp/Def2SVP td=(nstates=5)

TDDFT excited states in gaussian

0 1
Mg 15.77370 1.42347 1.19128
C 15.21430 4.93747 1.65813
C 15.09825 1.90743 -2.11692
C 15.81636 -1.72778 0.82358
C 15.27957 1.03078 4.61872
N 15.23914 3.23471 0.03979
C 15.11621 4.52492 0.31291
C 14.95441 5.43394 -0.93491
C 14.36517 4.34128 -1.95363
C 14.96275 3.08052 -1.33231
C 12.85067 4.22676 -1.90347
C 16.32531 6.00796 -1.43806
C 16.21171 7.14383 -2.45720
H 17.20103 8.21716 -2.41632
N 15.98092 0.32449 -0.44819
C 15.67923 0.68523 -1.71315
C 15.99365 -0.48277 -2.55045
C 16.35000 -1.61823 -1.65687
C 16.03589 -1.04458 -0.36368
C 16.01617 -0.42635 -4.05036
C 16.87322 -2.99718 -1.92317
O 16.88627 -3.89978 -1.01324
C 17.28302 -3.28737 -3.30496
N 15.36892 -0.15265 2.48524
C 15.51430 -1.42871 2.08716
C 15.43587 -2.37798 3.25897
C 15.44923 -1.45255 4.56319
C 15.44282 -0.06352 3.88796
C 14.21000 -3.29029 3.29514
C 16.54024 -1.75202 5.62747
C 17.90735 -1.42469 5.07137
N 15.51107 2.73818 2.88558
C 15.29395 2.36418 4.22985
C 15.05939 3.60605 4.99481
C 15.13410 4.62268 4.03077
C 15.37662 4.05289 2.75171
C 14.77033 3.68386 6.38640
C 15.05238 6.04745 3.80260
O 14.95057 7.03841 4.52465
C 14.97492 6.30472 2.23601
C 15.95725 7.39147 1.89464
O 17.17905 7.20535 2.03307
O 15.31084 8.38625 1.25987
C 16.24524 9.48288 0.89093
H 14.68300 1.90673 -3.12511
H 15.93011 -2.81304 0.77105
H 15.21517 1.00076 5.70850
H 14.25026 6.24857 -0.81525
H 14.75041 4.49034 -2.95898
H 12.42824 4.81714 -1.10401
H 12.64000 3.17644 -1.75019
H 12.42094 4.48146 -2.87651
H 16.82552 5.25083 -2.05555
H 16.93264 6.32309 -0.61195
H 15.19705 7.55790 -2.50152
H 16.37695 6.73195 -3.45573
H 15.55092 0.49362 -4.42532
H 15.36199 -1.22779 -4.41036
H 17.01657 -0.57478 -4.46248
H 16.43875 -3.13150 -3.97232
H 17.71149 -4.29115 -3.27801
H 18.05434 -2.56709 -3.59971
H 16.29788 -3.03326 3.28419
H 14.50899 -1.53151 5.12847
H 14.46721 -4.36574 3.33143
H 13.59833 -3.07461 2.42919
H 13.52049 -3.10494 4.11698
H 16.55068 -2.81756 5.86967
H 16.39645 -1.21182 6.55726
H 18.16386 -2.32323 4.50222
H 18.61752 -1.25198 5.87751
H 17.85452 -0.58973 4.36306
H 15.36296 4.49776 6.78245
H 14.99293 2.74638 6.89173
H 13.69656 3.88649 6.35152
H 13.94913 6.59164 2.00147
H 15.84365 10.40412 1.32421
H 16.33421 9.44152 -0.21095
H 17.23879 9.46145 1.32319

