%nproc=24
%mem=175gb
#p cam-b3lyp/Def2SVP td=(nstates=5)

TDDFT excited states in gaussian

0 1
Mg 13.14666 1.17701 0.99447
C 13.12461 2.05283 -2.48569
C 12.62750 -2.05368 0.03127
C 12.71191 0.44037 4.04992
C 12.52188 4.53221 1.70012
N 12.92302 0.24506 -0.99895
C 12.99412 0.66796 -2.25212
C 13.00196 -0.46457 -3.31367
C 12.27436 -1.60738 -2.45144
C 12.65678 -1.13674 -1.04968
C 10.75954 -1.57711 -2.56874
C 14.45573 -0.89105 -3.72196
C 14.54102 -1.76954 -4.97205
H 15.68261 -1.59842 -5.86645
N 13.21866 -0.57980 1.91480
C 13.00430 -1.79458 1.36739
C 13.15372 -2.76254 2.46507
C 13.31108 -2.00771 3.73793
C 13.06034 -0.65714 3.27622
C 13.21801 -4.24522 2.23938
C 13.62160 -2.43271 5.14120
O 13.47531 -1.63554 6.13415
C 14.01247 -3.83744 5.32945
N 12.47542 2.27441 2.62771
C 12.43146 1.72919 3.85601
C 12.18180 2.78053 4.91088
C 12.30845 4.18485 4.15626
C 12.53095 3.67814 2.71434
C 10.82961 2.70398 5.61947
C 13.31642 5.21071 4.74301
C 14.72965 4.70253 4.57000
N 13.05193 3.01348 -0.13974
C 12.74998 4.30338 0.34920
C 12.69243 5.20854 -0.81691
C 12.94416 4.37145 -1.91436
C 13.12446 3.03508 -1.46592
C 12.38791 6.59843 -0.77690
C 13.08782 4.31259 -3.35123
O 13.12373 5.14607 -4.25552
C 13.08574 2.78698 -3.79722
C 14.23099 2.58008 -4.75017
O 15.40620 2.70045 -4.36158
O 13.75970 2.06451 -5.90015
C 14.85974 1.83120 -6.87344
H 12.23961 -3.05656 -0.14946
H 12.65839 0.26065 5.12617
H 12.42941 5.61058 1.84586
H 12.42912 -0.25246 -4.20845
H 12.70021 -2.58660 -2.65429
H 10.41536 -0.71528 -3.12094
H 10.38635 -1.54962 -1.55335
H 10.39589 -2.51501 -2.99820
H 14.84704 -1.59153 -2.97300
H 15.08581 -0.03112 -3.84094
H 13.60344 -1.76875 -5.54116
H 14.66305 -2.80902 -4.65802
H 12.90837 -4.51090 1.22108
H 12.45643 -4.69983 2.88217
H 14.19255 -4.66799 2.49277
H 13.21731 -4.48511 4.96792
H 14.28061 -3.92737 6.38391
H 14.89183 -4.04211 4.70860
H 12.93190 2.73172 5.69067
H 11.35492 4.73313 4.15304
H 10.91734 2.61419 6.71870
H 10.27784 1.86708 5.21241
H 10.15874 3.53919 5.42569
H 13.15732 5.32558 5.81802
H 13.23686 6.19714 4.29847
H 14.85737 4.03240 5.42540
H 15.43983 5.52624 4.60442
H 14.82173 4.09744 3.66059
H 13.08981 7.09007 -1.43730
H 12.45226 6.99054 0.23596
H 11.35918 6.58343 -1.14668
H 12.12182 2.58384 -4.26537
H 14.59520 2.36851 -7.78941
H 14.96576 0.73250 -6.94673
H 15.82828 2.26187 -6.64785

