%nproc=24
%mem=175gb
#p cam-b3lyp/Def2SVP td=(nstates=5)

TDDFT excited states in gaussian

0 1
Mg 0.00000 0.00000 0.00000
C -0.21700 -2.21800 2.80100
C -1.25500 2.44200 2.02600
C -0.24500 1.85000 -2.56400
C 0.14600 -2.82400 -2.03700
N -0.61700 -0.00900 2.12600
C -0.59400 -0.90800 3.10500
C -0.93600 -0.30900 4.50200
C -1.77300 0.96400 4.03200
C -1.15500 1.16800 2.66000
C -3.26300 0.68500 3.86300
C 0.34500 0.11000 5.29900
C 0.12400 0.39700 6.78700
H 1.16800 0.03300 7.73300
N -0.18500 1.96100 -0.15200
C -0.70300 2.80000 0.77700
C -0.62000 4.15600 0.19300
C -0.18700 4.01500 -1.22500
C -0.21400 2.58300 -1.38000
C -0.88700 5.40600 0.97400
C 0.18100 5.01300 -2.27700
O 0.30300 4.69000 -3.50800
C 0.31000 6.41400 -1.83700
N -0.26500 -0.41300 -2.02900
C -0.27900 0.56900 -2.93700
C -0.19600 0.02400 -4.33200
C 0.12400 -1.53300 -4.18000
C 0.08600 -1.63200 -2.63500
C -1.45100 0.20500 -5.19700
C 1.37300 -2.07000 -4.92300
C 2.62600 -1.49000 -4.30600
N 0.15000 -2.14400 0.30300
C 0.17300 -3.13600 -0.68800
C 0.17300 -4.43800 0.00400
C 0.13300 -4.11100 1.35800
C 0.08300 -2.69500 1.50200
C 0.14900 -5.71500 -0.62300
C 0.09600 -4.62900 2.71600
O 0.20800 -5.74700 3.22100
C -0.25500 -3.42800 3.70100
C 0.71700 -3.48200 4.84800
O 1.93100 -3.25500 4.66900
O 0.03800 -3.55600 6.00300
C 0.94300 -3.58300 7.18300
H -1.85900 3.22000 2.49700
H -0.21800 2.45300 -3.47400
H 0.27600 -3.74700 -2.60500
H -1.55400 -0.94900 5.13200
H -1.58500 1.83100 4.66500
H -3.48400 -0.37700 3.96900
H -3.51100 1.02700 2.85800
H -3.85200 1.30100 4.54300
H 0.66900 1.09600 4.96600
H 1.13000 -0.63900 5.18900
H -0.84400 0.02600 7.12500
H 0.06200 1.47700 6.92100
H -1.34400 5.18600 1.93800
H -1.65100 5.96300 0.43200
H 0.00700 6.02000 1.08400
H -0.63500 6.74400 -1.40500
H 0.66500 6.97000 -2.70400
H 1.04800 6.46600 -1.03600
H 0.60800 0.50100 -4.89100
H -0.69200 -2.15600 -4.54700
H -1.26700 0.74000 -6.12900
H -2.20400 0.71400 -4.59600
H -1.96700 -0.72000 -5.45300
H 1.35600 -1.75900 -5.96700
H 1.45200 -3.15700 -4.90200
H 2.71400 -0.52200 -4.79800
H 3.48700 -2.12100 -4.52900
H 2.49500 -1.30300 -3.24000
H 0.86700 -6.33300 -0.08400
H 0.40400 -5.64200 -1.68000
H -0.89100 -5.99900 -0.46300
H -1.28300 -3.58100 4.02800
H 0.69800 -4.47800 7.75500
H 0.83300 -2.61900 7.68000
H 2.00000 -3.75400 6.97600
Mg 7.88855 0.71583 0.60558
C 8.13623 -1.45899 3.44949
C 6.22966 2.91367 2.61858
C 7.25900 2.45090 -1.97525
C 8.52143 -2.06311 -1.40007
N 7.31809 0.62603 2.74070
C 7.51968 -0.22337 3.73680
C 7.10557 0.31311 5.13332
C 6.02735 1.40555 4.66122
C 6.57217 1.69916 3.26493
C 4.62330 0.84227 4.51737
C 8.30316 0.98052 5.89644
C 8.05013 1.24819 7.38173
H 9.16481 1.10612 8.31434
N 7.33640 2.61467 0.43795
C 6.69229 3.35932 1.36093
C 6.49838 4.68197 0.74677
C 6.93366 4.60761 -0.67439
C 7.17912 3.18498 -0.80081
C 6.02224 5.87669 1.52095
C 7.08938 5.64337 -1.74638
O 7.25282 5.32052 -2.97597
C 6.95153 7.04596 -1.32777
N 7.67872 0.22819 -1.40453
C 7.45814 1.18066 -2.32760
C 7.61735 0.63263 -3.72571
C 8.23032 -0.83341 -3.54528
C 8.23641 -0.91712 -2.00309
C 6.33768 0.55009 -4.55759
C 9.54750 -1.14422 -4.30759
C 10.68105 -0.32415 -3.73493
N 8.44527 -1.34564 0.93488
C 8.63388 -2.34516 -0.04464
C 8.89000 -3.61241 0.67014
C 8.80918 -3.26402 2.02682
C 8.50293 -1.88170 2.14888
C 9.10615 -4.88129 0.06240
C 8.90280 -3.75355 3.38340
O 9.22386 -4.82258 3.90093
C 8.34635 -2.63351 4.36435
C 9.32774 -2.47551 5.49325
O 10.47274 -2.03994 5.27906
O 8.68723 -2.65677 6.66255
C 9.61666 -2.49913 7.81282
H 5.50474 3.57090 3.09964
H 7.15888 3.02616 -2.89857
H 8.82483 -2.95433 -1.95357
H 6.63536 -0.41820 5.77975
H 6.06989 2.29654 5.28225
H 4.60463 -0.23015 4.64270
H 4.29859 1.11245 3.52107
H 3.94102 1.35038 5.20487
H 8.42645 2.01067 5.53822
H 9.19864 0.40134 5.78107
H 7.16799 0.71231 7.75270
H 7.79445 2.30333 7.50554
H 5.62416 5.58802 2.50157
H 5.15683 6.28099 0.98480
H 6.78291 6.65602 1.60284
H 5.97191 7.19450 -0.87975
H 7.18351 7.63961 -2.21414
H 7.69009 7.25162 -0.54492
H 8.31011 1.23488 -4.30058
H 7.53774 -1.61105 -3.89947
H 6.40199 1.10358 -5.51341
H 5.51650 0.92030 -3.95830
H 6.00945 -0.45895 -4.80110
H 9.45476 -0.85513 -5.35735
H 9.82197 -2.19359 -4.28558
H 10.57074 0.63832 -4.24342
H 11.64029 -0.78393 -3.96403
H 10.53722 -0.14875 -2.66246
H 9.92895 -5.34368 0.59125
H 9.32074 -4.78207 -0.99962
H 8.13595 -5.35181 0.24293
H 7.36767 -2.96258 4.71573
H 9.55076 -3.41712 8.40496
H 9.31956 -1.55661 8.30996
H 10.67821 -2.46180 7.59796

