%nproc=24
%mem=175gb
#p cam-b3lyp/Def2SVP td=(nstates=5)

TDDFT excited states in gaussian

0 1
Mg 0.00000 0.00000 0.00000
C -0.21700 -2.21800 2.80100
C -1.25500 2.44200 2.02600
C -0.24500 1.85000 -2.56400
C 0.14600 -2.82400 -2.03700
N -0.61700 -0.00900 2.12600
C -0.59400 -0.90800 3.10500
C -0.93600 -0.30900 4.50200
C -1.77300 0.96400 4.03200
C -1.15500 1.16800 2.66000
C -3.26300 0.68500 3.86300
C 0.34500 0.11000 5.29900
C 0.12400 0.39700 6.78700
H 1.16800 0.03300 7.73300
N -0.18500 1.96100 -0.15200
C -0.70300 2.80000 0.77700
C -0.62000 4.15600 0.19300
C -0.18700 4.01500 -1.22500
C -0.21400 2.58300 -1.38000
C -0.88700 5.40600 0.97400
C 0.18100 5.01300 -2.27700
O 0.30300 4.69000 -3.50800
C 0.31000 6.41400 -1.83700
N -0.26500 -0.41300 -2.02900
C -0.27900 0.56900 -2.93700
C -0.19600 0.02400 -4.33200
C 0.12400 -1.53300 -4.18000
C 0.08600 -1.63200 -2.63500
C -1.45100 0.20500 -5.19700
C 1.37300 -2.07000 -4.92300
C 2.62600 -1.49000 -4.30600
N 0.15000 -2.14400 0.30300
C 0.17300 -3.13600 -0.68800
C 0.17300 -4.43800 0.00400
C 0.13300 -4.11100 1.35800
C 0.08300 -2.69500 1.50200
C 0.14900 -5.71500 -0.62300
C 0.09600 -4.62900 2.71600
O 0.20800 -5.74700 3.22100
C -0.25500 -3.42800 3.70100
C 0.71700 -3.48200 4.84800
O 1.93100 -3.25500 4.66900
O 0.03800 -3.55600 6.00300
C 0.94300 -3.58300 7.18300
H -1.85900 3.22000 2.49700
H -0.21800 2.45300 -3.47400
H 0.27600 -3.74700 -2.60500
H -1.55400 -0.94900 5.13200
H -1.58500 1.83100 4.66500
H -3.48400 -0.37700 3.96900
H -3.51100 1.02700 2.85800
H -3.85200 1.30100 4.54300
H 0.66900 1.09600 4.96600
H 1.13000 -0.63900 5.18900
H -0.84400 0.02600 7.12500
H 0.06200 1.47700 6.92100
H -1.34400 5.18600 1.93800
H -1.65100 5.96300 0.43200
H 0.00700 6.02000 1.08400
H -0.63500 6.74400 -1.40500
H 0.66500 6.97000 -2.70400
H 1.04800 6.46600 -1.03600
H 0.60800 0.50100 -4.89100
H -0.69200 -2.15600 -4.54700
H -1.26700 0.74000 -6.12900
H -2.20400 0.71400 -4.59600
H -1.96700 -0.72000 -5.45300
H 1.35600 -1.75900 -5.96700
H 1.45200 -3.15700 -4.90200
H 2.71400 -0.52200 -4.79800
H 3.48700 -2.12100 -4.52900
H 2.49500 -1.30300 -3.24000
H 0.86700 -6.33300 -0.08400
H 0.40400 -5.64200 -1.68000
H -0.89100 -5.99900 -0.46300
H -1.28300 -3.58100 4.02800
H 0.69800 -4.47800 7.75500
H 0.83300 -2.61900 7.68000
H 2.00000 -3.75400 6.97600
Mg 10.51484 0.94918 0.78906
C 13.22100 -1.38350 0.45084
C 12.83890 3.44037 0.62372
C 8.21727 3.00662 1.53440
C 8.59721 -1.67172 2.05370
N 12.71492 0.90776 0.56497
C 13.62782 -0.03464 0.38378
C 15.04319 0.49936 0.03575
C 14.91342 1.96365 0.68221
C 13.39895 2.13833 0.58968
C 15.31109 2.01173 2.14811
C 15.28977 0.57457 -1.51201
C 16.74832 0.79157 -1.92104
H 17.23421 0.14361 -3.13617
N 10.43184 2.91905 0.56263
C 11.47313 3.77465 0.49232
C 10.88372 5.11455 0.34602
C 9.40828 4.99748 0.50124
C 9.29467 3.60934 0.90154
C 11.69799 6.32904 0.00629
C 8.28643 5.97668 0.33151
O 7.10172 5.72242 0.74940
C 8.63604 7.27914 -0.25405
N 8.74401 0.75762 1.86134
C 7.89938 1.79559 1.99229
C 6.57329 1.35127 2.56190
C 6.61905 -0.24732 2.56044
C 8.06168 -0.45872 2.05101
C 6.25407 1.84972 3.97116
C 5.46223 -0.98383 1.83105
C 5.54390 -0.72735 0.34346
N 10.75755 -1.18528 1.01982
C 9.84066 -2.09047 1.59778
C 10.49848 -3.41273 1.63418
C 11.77100 -3.17844 1.09170
C 11.90460 -1.80295 0.76053
C 9.93613 -4.60728 2.16610
C 13.03545 -3.77987 0.73372
O 13.47354 -4.92921 0.70505
C 14.07586 -2.61997 0.41976
C 14.77283 -2.95766 -0.86971
O 14.14064 -2.99019 -1.94017
O 16.10203 -2.97240 -0.66141
C 16.83730 -3.29185 -1.91407
H 13.50186 4.28559 0.81073
H 7.35401 3.65191 1.71288
H 8.03050 -2.55940 2.34272
H 15.85942 -0.04103 0.49999
H 15.42101 2.70945 0.07599
H 15.50331 1.02638 2.54595
H 14.47856 2.47217 2.66381
H 16.16121 2.68595 2.28616
H 14.84594 1.50012 -1.90074
H 14.90291 -0.29755 -2.00227
H 17.44042 0.61555 -1.08860
H 16.88664 1.84747 -2.16590
H 12.77234 6.13692 0.11713
H 11.47733 7.08515 0.76752
H 11.45589 6.73680 -0.97746
H 9.39069 7.76147 0.36266
H 7.68881 7.80765 -0.37775
H 9.09272 7.11016 -1.23563
H 5.75350 1.67993 1.93498
H 6.58284 -0.65691 3.58061
H 5.30380 2.41328 4.02999
H 7.07974 2.45979 4.31263
H 6.20730 1.07564 4.73525
H 4.49668 -0.59262 2.16090
H 5.45301 -2.05435 2.00683
H 5.04664 0.24088 0.23231
H 5.02072 -1.50545 -0.20871
H 6.58448 -0.60230 0.02219
H 10.16874 -5.39922 1.46667
H 8.86274 -4.50957 2.31464
H 10.47740 -4.67252 3.11375
H 14.77054 -2.56703 1.25892
H 17.47202 -4.15732 -1.70011
H 17.34591 -2.35484 -2.20916
H 16.25945 -3.65619 -2.75538

