%nproc=24
%mem=175gb
#p cam-b3lyp/Def2SVP td=(nstates=5)

TDDFT excited states in gaussian

0 1
Mg 10.51561 0.94091 0.80625
C 7.85971 0.74461 3.21180
C 12.32695 2.61198 3.16446
C 12.69473 1.52532 -1.42475
C 8.14038 0.29956 -1.66208
N 10.04564 1.53996 2.88291
C 9.02819 1.35694 3.71094
C 9.30651 1.78592 5.17658
C 10.47571 2.85080 4.89755
C 11.01256 2.28580 3.58406
C 9.96002 4.25643 4.63751
C 9.81427 0.59420 6.06202
C 9.81076 0.86503 7.56814
H 9.49247 -0.23636 8.47264
N 12.41815 1.47860 0.97892
C 12.98893 2.13000 2.01389
C 14.40255 2.30732 1.64728
C 14.58298 1.85388 0.24139
C 13.20468 1.61592 -0.13778
C 15.44143 2.78592 2.61944
C 15.79433 1.67743 -0.62330
O 15.69806 1.49992 -1.88902
C 17.09908 1.81177 0.04083
N 10.40185 1.12741 -1.26127
C 11.50761 1.32972 -1.99903
C 11.22044 1.15566 -3.47132
C 9.74068 0.55454 -3.55228
C 9.37906 0.56927 -2.05082
C 11.30102 2.42479 -4.31939
C 9.56161 -0.77052 -4.34273
C 10.25454 -1.90168 -3.61768
N 8.42383 0.40181 0.76316
C 7.61660 0.20676 -0.37895
C 6.23869 -0.03180 0.09738
C 6.33635 0.06461 1.49368
C 7.67632 0.36356 1.86054
C 5.09901 -0.24778 -0.72760
C 5.60847 -0.00803 2.74012
O 4.46065 -0.31539 3.05916
C 6.53716 0.55407 3.90114
C 6.47960 -0.41338 5.05146
O 6.93679 -1.56386 4.93321
O 6.09518 0.24360 6.16095
C 6.03385 -0.67162 7.33160
H 12.89249 3.33893 3.74807
H 13.42852 1.60960 -2.22969
H 7.36152 -0.00537 -2.36427
H 8.47435 2.26927 5.67424
H 11.23911 2.81072 5.67018
H 8.88284 4.28363 4.56626
H 10.40896 4.56627 3.70290
H 10.34115 4.94441 5.39761
H 10.89115 0.45960 5.89784
H 9.25779 -0.29897 5.85418
H 9.22425 1.75538 7.82548
H 10.82821 1.11553 7.87805
H 14.98345 3.19870 3.52678
H 15.94364 3.64160 2.15526
H 16.18641 2.02141 2.85011
H 17.17256 2.79623 0.49679
H 17.84138 1.56435 -0.72052
H 17.15316 1.08227 0.85662
H 11.91078 0.45155 -3.91938
H 9.04608 1.24738 -4.04962
H 12.01786 2.34437 -5.15829
H 11.56372 3.25138 -3.67265
H 10.35564 2.75626 -4.74552
H 10.03680 -0.69346 -5.32376
H 8.52326 -1.03795 -4.50797
H 11.29410 -1.80425 -3.94465
H 9.83552 -2.86089 -3.91497
H 10.23409 -1.74489 -2.53294
H 4.54136 -1.06057 -0.28163
H 5.38701 -0.47695 -1.75147
H 4.61202 0.72771 -0.64673
H 6.15843 1.53938 4.17555
H 5.02442 -0.59205 7.74681
H 6.87331 -0.37407 7.98774
H 6.10024 -1.73612 7.13957

