%nproc=24
%mem=175gb
#p cam-b3lyp/Def2SVP td=(nstates=5)

TDDFT excited states in gaussian

0 1
Mg 10.51335 0.95442 0.80474
C 11.76078 -0.77677 3.69022
C 8.14291 2.32645 2.83776
C 9.11743 2.13761 -1.78734
C 12.20508 -1.37904 -1.15452
N 10.10745 0.72746 2.96715
C 10.68557 0.09074 3.97447
C 10.12886 0.46282 5.37489
C 8.67229 0.97001 4.92764
C 8.99263 1.40382 3.49870
C 7.63932 -0.14302 4.86868
C 10.95145 1.61024 6.05957
C 10.65804 1.81194 7.54785
H 11.75706 2.20014 8.42758
N 9.19793 2.42811 0.61379
C 8.32868 2.86899 1.54723
C 7.56814 3.95405 0.90818
C 7.94582 4.00753 -0.53030
C 8.77093 2.82042 -0.63051
C 6.65352 4.86643 1.67266
C 7.60844 4.96127 -1.63608
O 7.85299 4.68320 -2.86315
C 6.89887 6.18932 -1.24894
N 10.46494 0.33314 -1.17869
C 9.82807 1.05826 -2.11492
C 10.15934 0.56720 -3.50400
C 11.34532 -0.48885 -3.31489
C 11.43801 -0.49191 -1.77321
C 9.01052 -0.08964 -4.26895
C 12.64284 -0.24395 -4.13290
C 13.33602 1.00555 -3.63930
N 11.90774 -0.65698 1.16126
C 12.47235 -1.52459 0.20076
C 13.26880 -2.52855 0.93571
C 13.09225 -2.18646 2.28490
C 12.22927 -1.06184 2.38485
C 13.98572 -3.61102 0.35227
C 13.43116 -2.52750 3.64781
O 14.19507 -3.33362 4.17730
C 12.48275 -1.70740 4.62472
C 13.33973 -1.09578 5.69898
O 14.18120 -0.22465 5.41673
O 12.87736 -1.47905 6.90301
C 13.68826 -0.88890 8.00119
H 7.22324 2.63387 3.33634
H 8.75049 2.57302 -2.71968
H 12.84137 -2.08059 -1.69825
H 10.03784 -0.36887 6.06320
H 8.35094 1.82161 5.52168
H 8.08461 -1.11455 5.02351
H 7.19730 -0.08220 3.88279
H 6.82875 0.05714 5.57525
H 10.61098 2.57752 5.66817
H 12.00410 1.46254 5.91556
H 10.10215 0.96910 7.97630
H 9.98054 2.66244 7.65583
H 6.44979 4.48067 2.67918
H 5.68097 4.83929 1.16938
H 7.01078 5.89818 1.69583
H 5.96517 5.92711 -0.75709
H 6.82540 6.78435 -2.16132
H 7.50452 6.72498 -0.50944
H 10.50896 1.38019 -4.12843
H 11.03978 -1.50246 -3.61335
H 8.80037 0.39460 -5.24129
H 8.13038 -0.07722 -3.63987
H 9.13671 -1.15235 -4.46874
H 12.40057 -0.06977 -5.18415
H 13.33973 -1.07461 -4.09637
H 12.80836 1.80545 -4.16734
H 14.39151 0.98773 -3.90321
H 13.16692 1.15158 -2.56611
H 14.94433 -3.65485 0.85193
H 14.10183 -3.47825 -0.72135
H 13.31601 -4.44090 0.59320
H 11.75065 -2.40528 5.03286
H 14.04049 -1.71977 8.62028
H 13.03388 -0.14087 8.48697
H 14.62438 -0.41325 7.73308

