%nproc=24
%mem=175gb
#p cam-b3lyp/Def2SVP td=(nstates=5)

TDDFT excited states in gaussian

0 1
Mg 0.00000 0.00000 0.00000
C -0.21700 -2.21800 2.80100
C -1.25500 2.44200 2.02600
C -0.24500 1.85000 -2.56400
C 0.14600 -2.82400 -2.03700
N -0.61700 -0.00900 2.12600
C -0.59400 -0.90800 3.10500
C -0.93600 -0.30900 4.50200
C -1.77300 0.96400 4.03200
C -1.15500 1.16800 2.66000
C -3.26300 0.68500 3.86300
C 0.34500 0.11000 5.29900
C 0.12400 0.39700 6.78700
H 1.16800 0.03300 7.73300
N -0.18500 1.96100 -0.15200
C -0.70300 2.80000 0.77700
C -0.62000 4.15600 0.19300
C -0.18700 4.01500 -1.22500
C -0.21400 2.58300 -1.38000
C -0.88700 5.40600 0.97400
C 0.18100 5.01300 -2.27700
O 0.30300 4.69000 -3.50800
C 0.31000 6.41400 -1.83700
N -0.26500 -0.41300 -2.02900
C -0.27900 0.56900 -2.93700
C -0.19600 0.02400 -4.33200
C 0.12400 -1.53300 -4.18000
C 0.08600 -1.63200 -2.63500
C -1.45100 0.20500 -5.19700
C 1.37300 -2.07000 -4.92300
C 2.62600 -1.49000 -4.30600
N 0.15000 -2.14400 0.30300
C 0.17300 -3.13600 -0.68800
C 0.17300 -4.43800 0.00400
C 0.13300 -4.11100 1.35800
C 0.08300 -2.69500 1.50200
C 0.14900 -5.71500 -0.62300
C 0.09600 -4.62900 2.71600
O 0.20800 -5.74700 3.22100
C -0.25500 -3.42800 3.70100
C 0.71700 -3.48200 4.84800
O 1.93100 -3.25500 4.66900
O 0.03800 -3.55600 6.00300
C 0.94300 -3.58300 7.18300
H -1.85900 3.22000 2.49700
H -0.21800 2.45300 -3.47400
H 0.27600 -3.74700 -2.60500
H -1.55400 -0.94900 5.13200
H -1.58500 1.83100 4.66500
H -3.48400 -0.37700 3.96900
H -3.51100 1.02700 2.85800
H -3.85200 1.30100 4.54300
H 0.66900 1.09600 4.96600
H 1.13000 -0.63900 5.18900
H -0.84400 0.02600 7.12500
H 0.06200 1.47700 6.92100
H -1.34400 5.18600 1.93800
H -1.65100 5.96300 0.43200
H 0.00700 6.02000 1.08400
H -0.63500 6.74400 -1.40500
H 0.66500 6.97000 -2.70400
H 1.04800 6.46600 -1.03600
H 0.60800 0.50100 -4.89100
H -0.69200 -2.15600 -4.54700
H -1.26700 0.74000 -6.12900
H -2.20400 0.71400 -4.59600
H -1.96700 -0.72000 -5.45300
H 1.35600 -1.75900 -5.96700
H 1.45200 -3.15700 -4.90200
H 2.71400 -0.52200 -4.79800
H 3.48700 -2.12100 -4.52900
H 2.49500 -1.30300 -3.24000
H 0.86700 -6.33300 -0.08400
H 0.40400 -5.64200 -1.68000
H -0.89100 -5.99900 -0.46300
H -1.28300 -3.58100 4.02800
H 0.69800 -4.47800 7.75500
H 0.83300 -2.61900 7.68000
H 2.00000 -3.75400 6.97600
Mg 13.14586 1.18539 1.00530
C 12.15280 -0.91918 3.73727
C 12.63678 3.85222 3.07012
C 13.57819 3.08212 -1.50128
C 12.47742 -1.49434 -1.12024
N 12.48109 1.32101 3.11052
C 12.19154 0.45168 4.06696
C 12.00729 1.08102 5.47392
C 11.61689 2.57154 5.02138
C 12.31489 2.60538 3.66332
C 10.12593 2.76128 4.79694
C 13.33222 1.06434 6.31434
C 13.15442 1.37808 7.80152
H 14.00759 0.68828 8.76524
N 13.58618 3.11856 0.91842
C 13.32809 4.05483 1.85547
C 13.83015 5.32355 1.30552
C 14.25670 5.08905 -0.10082
C 13.79413 3.72925 -0.29333
C 13.94410 6.57675 2.12400
C 14.95283 5.95098 -1.11012
O 15.01103 5.62490 -2.34831
C 15.48312 7.23284 -0.62317
N 12.84305 0.91795 -1.03409
C 13.16139 1.88455 -1.91288
C 13.11720 1.36832 -3.33131
C 12.93760 -0.21590 -3.20654
C 12.81413 -0.33648 -1.67174
C 12.00586 1.93841 -4.21239
C 13.98399 -1.10241 -3.93581
C 15.33728 -0.94908 -3.27971
N 12.62200 -0.89694 1.24510
C 12.36226 -1.83449 0.22156
C 11.93549 -3.08770 0.87713
C 11.95457 -2.78286 2.24651
C 12.34482 -1.42882 2.43032
C 11.54889 -4.28495 0.21136
C 11.72304 -3.29550 3.57778
O 11.45979 -4.40096 4.04936
C 11.71893 -2.07478 4.59574
C 12.58862 -2.44325 5.76637
O 13.81208 -2.60924 5.61731
O 11.87400 -2.32601 6.90036
C 12.69685 -2.67030 8.09041
H 12.29130 4.76377 3.55860
H 13.82040 3.66044 -2.39590
H 12.34574 -2.40485 -1.70871
H 11.20699 0.64972 6.06321
H 12.04718 3.31275 5.68982
H 9.58638 1.82830 4.86459
H 10.02909 3.18328 3.80519
H 9.73414 3.51579 5.48510
H 13.95632 1.91649 6.01585
H 13.84346 0.12816 6.20113
H 12.10363 1.32477 8.11128
H 13.43138 2.42134 7.97161
H 13.40069 6.48830 3.07284
H 13.41240 7.36415 1.57887
H 14.97978 6.88875 2.27463
H 14.67197 7.82330 -0.20384
H 16.02258 7.66571 -1.46785
H 16.18320 7.03337 0.19581
H 14.04598 1.57709 -3.84793
H 11.97792 -0.55149 -3.62634
H 12.38330 2.41916 -5.13461
H 11.43128 2.64191 -3.62461
H 11.24718 1.22109 -4.52073
H 14.10223 -0.77443 -4.97147
H 13.71789 -2.15390 -3.95939
H 15.73311 -0.03895 -3.74023
H 15.96829 -1.80834 -3.49777
H 15.23431 -0.75697 -2.20540
H 12.01578 -5.10238 0.74458
H 11.84530 -4.27126 -0.83541
H 10.46345 -4.23305 0.33133
H 10.68433 -1.89992 4.89338
H 12.16349 -3.45877 8.63035
H 12.86195 -1.71633 8.62559
H 13.65573 -3.14442 7.91658

