%nproc=24
%mem=175gb
#p cam-b3lyp/Def2SVP td=(nstates=5)

TDDFT excited states in gaussian

0 1
Mg 0.00000 0.00000 0.00000
C -0.21700 -2.21800 2.80100
C -1.25500 2.44200 2.02600
C -0.24500 1.85000 -2.56400
C 0.14600 -2.82400 -2.03700
N -0.61700 -0.00900 2.12600
C -0.59400 -0.90800 3.10500
C -0.93600 -0.30900 4.50200
C -1.77300 0.96400 4.03200
C -1.15500 1.16800 2.66000
C -3.26300 0.68500 3.86300
C 0.34500 0.11000 5.29900
C 0.12400 0.39700 6.78700
H 1.16800 0.03300 7.73300
N -0.18500 1.96100 -0.15200
C -0.70300 2.80000 0.77700
C -0.62000 4.15600 0.19300
C -0.18700 4.01500 -1.22500
C -0.21400 2.58300 -1.38000
C -0.88700 5.40600 0.97400
C 0.18100 5.01300 -2.27700
O 0.30300 4.69000 -3.50800
C 0.31000 6.41400 -1.83700
N -0.26500 -0.41300 -2.02900
C -0.27900 0.56900 -2.93700
C -0.19600 0.02400 -4.33200
C 0.12400 -1.53300 -4.18000
C 0.08600 -1.63200 -2.63500
C -1.45100 0.20500 -5.19700
C 1.37300 -2.07000 -4.92300
C 2.62600 -1.49000 -4.30600
N 0.15000 -2.14400 0.30300
C 0.17300 -3.13600 -0.68800
C 0.17300 -4.43800 0.00400
C 0.13300 -4.11100 1.35800
C 0.08300 -2.69500 1.50200
C 0.14900 -5.71500 -0.62300
C 0.09600 -4.62900 2.71600
O 0.20800 -5.74700 3.22100
C -0.25500 -3.42800 3.70100
C 0.71700 -3.48200 4.84800
O 1.93100 -3.25500 4.66900
O 0.03800 -3.55600 6.00300
C 0.94300 -3.58300 7.18300
H -1.85900 3.22000 2.49700
H -0.21800 2.45300 -3.47400
H 0.27600 -3.74700 -2.60500
H -1.55400 -0.94900 5.13200
H -1.58500 1.83100 4.66500
H -3.48400 -0.37700 3.96900
H -3.51100 1.02700 2.85800
H -3.85200 1.30100 4.54300
H 0.66900 1.09600 4.96600
H 1.13000 -0.63900 5.18900
H -0.84400 0.02600 7.12500
H 0.06200 1.47700 6.92100
H -1.34400 5.18600 1.93800
H -1.65100 5.96300 0.43200
H 0.00700 6.02000 1.08400
H -0.63500 6.74400 -1.40500
H 0.66500 6.97000 -2.70400
H 1.04800 6.46600 -1.03600
H 0.60800 0.50100 -4.89100
H -0.69200 -2.15600 -4.54700
H -1.26700 0.74000 -6.12900
H -2.20400 0.71400 -4.59600
H -1.96700 -0.72000 -5.45300
H 1.35600 -1.75900 -5.96700
H 1.45200 -3.15700 -4.90200
H 2.71400 -0.52200 -4.79800
H 3.48700 -2.12100 -4.52900
H 2.49500 -1.30300 -3.24000
H 0.86700 -6.33300 -0.08400
H 0.40400 -5.64200 -1.68000
H -0.89100 -5.99900 -0.46300
H -1.28300 -3.58100 4.02800
H 0.69800 -4.47800 7.75500
H 0.83300 -2.61900 7.68000
H 2.00000 -3.75400 6.97600
Mg 7.88953 0.70632 0.60658
C 5.48850 -0.22657 3.10535
C 9.15439 2.92765 2.86500
C 9.72167 1.86617 -1.70976
C 5.76679 -0.71391 -1.76463
N 7.31107 1.19485 2.68480
C 6.42225 0.73208 3.55093
C 6.59184 1.27129 4.99664
C 7.36586 2.63621 4.65495
C 8.01712 2.22436 3.33627
C 6.43342 3.80487 4.38266
C 7.46667 0.32289 5.88952
C 7.41846 0.62591 7.38872
H 7.48071 -0.49133 8.32700
N 9.53560 1.81078 0.70242
C 9.90307 2.63844 1.70303
C 11.18216 3.23253 1.28450
C 11.45769 2.81371 -0.11671
C 10.21164 2.14978 -0.44325
C 12.04644 4.03867 2.21002
C 12.64125 2.99358 -1.01840
O 12.57194 2.75586 -2.27598
C 13.85691 3.54511 -0.40237
N 7.67000 0.78436 -1.45935
C 8.63912 1.29555 -2.23872
C 8.38195 0.99572 -3.69624
C 7.15972 -0.03552 -3.71356
C 6.85039 -0.08675 -2.20125
C 8.04327 2.20068 -4.57359
C 7.37964 -1.37489 -4.46882
C 8.40753 -2.21346 -3.74384
N 6.06738 -0.45395 0.64673
C 5.33100 -0.92424 -0.46261
C 4.10768 -1.56210 0.06564
C 4.20682 -1.39700 1.45539
C 5.39725 -0.68733 1.76964
C 3.07003 -2.14519 -0.71500
C 3.56986 -1.65237 2.72730
O 2.58246 -2.28939 3.09198
C 4.30844 -0.79507 3.84351
C 4.58335 -1.69681 5.01561
O 5.37131 -2.65274 4.90646
O 4.04317 -1.15674 6.12327
C 4.29884 -2.00937 7.31469
H 9.48176 3.81151 3.41317
H 10.37209 2.14812 -2.54099
H 5.10282 -1.26623 -2.43302
H 5.66407 1.48896 5.51203
H 8.12387 2.85800 5.40167
H 5.39937 3.49559 4.34777
H 6.73986 4.20916 3.42678
H 6.60218 4.60017 5.11433
H 8.52761 0.52269 5.69147
H 7.20917 -0.70453 5.72006
H 6.59181 1.29894 7.64684
H 8.31589 1.18809 7.65816
H 11.50677 4.31761 3.12345
H 12.24655 4.99285 1.71067
H 12.99736 3.54937 2.43138
H 13.63350 4.51771 0.02959
H 14.61933 3.51575 -1.18322
H 14.15551 2.89369 0.42654
H 9.24463 0.52591 -4.15248
H 6.27197 0.39295 -4.20156
H 8.72774 2.31979 -5.43463
H 8.05358 3.08762 -3.95410
H 7.03100 2.21037 -4.97410
H 7.78195 -1.18517 -5.46697
H 6.47135 -1.95512 -4.59263
H 9.35689 -1.80969 -4.10823
H 8.29881 -3.26394 -4.00597
H 8.36764 -2.03713 -2.66265
H 2.80345 -3.07631 -0.23286
H 3.38822 -2.30575 -1.74298
H 2.30700 -1.36597 -0.63843
H 3.65027 0.03296 4.10954
H 3.32556 -2.23284 7.76243
H 5.02149 -1.44675 7.93516
H 4.68682 -3.00665 7.14336

