%nproc=24
%mem=175gb
#p cam-b3lyp/Def2SVP td=(nstates=5)

TDDFT excited states in gaussian

0 1
Mg 0.00000 0.00000 0.00000
C -0.21700 -2.21800 2.80100
C -1.25500 2.44200 2.02600
C -0.24500 1.85000 -2.56400
C 0.14600 -2.82400 -2.03700
N -0.61700 -0.00900 2.12600
C -0.59400 -0.90800 3.10500
C -0.93600 -0.30900 4.50200
C -1.77300 0.96400 4.03200
C -1.15500 1.16800 2.66000
C -3.26300 0.68500 3.86300
C 0.34500 0.11000 5.29900
C 0.12400 0.39700 6.78700
H 1.16800 0.03300 7.73300
N -0.18500 1.96100 -0.15200
C -0.70300 2.80000 0.77700
C -0.62000 4.15600 0.19300
C -0.18700 4.01500 -1.22500
C -0.21400 2.58300 -1.38000
C -0.88700 5.40600 0.97400
C 0.18100 5.01300 -2.27700
O 0.30300 4.69000 -3.50800
C 0.31000 6.41400 -1.83700
N -0.26500 -0.41300 -2.02900
C -0.27900 0.56900 -2.93700
C -0.19600 0.02400 -4.33200
C 0.12400 -1.53300 -4.18000
C 0.08600 -1.63200 -2.63500
C -1.45100 0.20500 -5.19700
C 1.37300 -2.07000 -4.92300
C 2.62600 -1.49000 -4.30600
N 0.15000 -2.14400 0.30300
C 0.17300 -3.13600 -0.68800
C 0.17300 -4.43800 0.00400
C 0.13300 -4.11100 1.35800
C 0.08300 -2.69500 1.50200
C 0.14900 -5.71500 -0.62300
C 0.09600 -4.62900 2.71600
O 0.20800 -5.74700 3.22100
C -0.25500 -3.42800 3.70100
C 0.71700 -3.48200 4.84800
O 1.93100 -3.25500 4.66900
O 0.03800 -3.55600 6.00300
C 0.94300 -3.58300 7.18300
H -1.85900 3.22000 2.49700
H -0.21800 2.45300 -3.47400
H 0.27600 -3.74700 -2.60500
H -1.55400 -0.94900 5.13200
H -1.58500 1.83100 4.66500
H -3.48400 -0.37700 3.96900
H -3.51100 1.02700 2.85800
H -3.85200 1.30100 4.54300
H 0.66900 1.09600 4.96600
H 1.13000 -0.63900 5.18900
H -0.84400 0.02600 7.12500
H 0.06200 1.47700 6.92100
H -1.34400 5.18600 1.93800
H -1.65100 5.96300 0.43200
H 0.00700 6.02000 1.08400
H -0.63500 6.74400 -1.40500
H 0.66500 6.97000 -2.70400
H 1.04800 6.46600 -1.03600
H 0.60800 0.50100 -4.89100
H -0.69200 -2.15600 -4.54700
H -1.26700 0.74000 -6.12900
H -2.20400 0.71400 -4.59600
H -1.96700 -0.72000 -5.45300
H 1.35600 -1.75900 -5.96700
H 1.45200 -3.15700 -4.90200
H 2.71400 -0.52200 -4.79800
H 3.48700 -2.12100 -4.52900
H 2.49500 -1.30300 -3.24000
H 0.86700 -6.33300 -0.08400
H 0.40400 -5.64200 -1.68000
H -0.89100 -5.99900 -0.46300
H -1.28300 -3.58100 4.02800
H 0.69800 -4.47800 7.75500
H 0.83300 -2.61900 7.68000
H 2.00000 -3.75400 6.97600
Mg 15.77438 1.41415 1.19329
C 15.70310 2.72011 -2.14863
C 15.27234 -1.67503 -0.16299
C 15.38261 0.29495 4.13631
C 15.12844 4.64749 2.32200
N 15.53524 0.73786 -0.89900
C 15.58765 1.31560 -2.08973
C 15.59285 0.32559 -3.28531
C 14.88570 -0.92392 -2.56592
C 15.28063 -0.62927 -1.12028
C 13.36938 -0.89470 -2.66225
C 17.04535 -0.03125 -3.75955
C 17.12349 -0.74476 -5.11105
H 18.25279 -0.45089 -5.98901
N 15.87287 -0.44355 1.88452
C 15.66274 -1.58204 1.19100
C 15.83378 -2.67869 2.15654
C 15.99963 -2.08823 3.51248
C 15.73148 -0.69299 3.22702
C 15.90848 -4.12052 1.74548
C 16.33059 -2.68299 4.84774
O 16.18912 -2.01848 5.93458
C 16.73608 -4.09616 4.85361
N 15.11298 2.29066 2.95869
C 15.08850 1.59498 4.10906
C 14.84215 2.50281 5.29039
C 14.94738 3.99205 4.71708
C 15.15714 3.67287 3.22058
C 13.49923 2.32393 5.99818
C 15.95317 4.94633 5.41738
C 17.36867 4.47846 5.16669
N 15.64991 3.37753 0.30015
C 15.34243 4.59260 0.95066
C 15.26298 5.63649 -0.09165
C 15.50900 4.94657 -1.28831
C 15.70644 3.56636 -1.01347
C 14.94670 7.00713 0.12612
C 15.63604 5.07022 -2.72263
O 15.65379 6.01107 -3.51524
C 15.64212 3.61282 -3.35692
C 16.77771 3.53908 -4.34054
O 17.95636 3.62172 -3.95252
O 16.29732 3.16731 -5.54112
C 17.38769 3.06946 -6.54776
H 14.89121 -2.65118 -0.46426
H 15.34351 -0.01913 5.18192
H 15.02818 5.69799 2.60320
H 15.00753 0.64257 -4.14011
H 15.31773 -1.86546 -2.89487
H 13.01104 0.02611 -3.09794
H 13.00810 -0.99886 -1.64752
H 13.00894 -1.77488 -3.20233
H 17.45174 -0.81625 -3.10889
H 17.66634 0.84323 -3.77617
H 16.17922 -0.68208 -5.66546
H 17.25844 -1.81415 -4.93159
H 15.58908 -4.25929 0.70522
H 15.15866 -4.66009 2.33412
H 16.88966 -4.56175 1.93323
H 15.94242 -4.70139 4.42203
H 17.01756 -4.31513 5.88545
H 17.60975 -4.21215 4.20256
H 15.60189 2.36409 6.04977
H 13.98907 4.52657 4.79308
H 13.60085 2.09762 7.07638
H 12.95006 1.53921 5.49503
H 12.81875 3.16995 5.91819
H 15.80589 4.92355 6.49994
H 15.85960 5.97993 5.10131
H 17.51250 3.70749 5.92959
H 18.07190 5.29855 5.29682
H 17.45525 3.99342 4.18746
H 15.63630 7.58504 -0.47469
H 15.01964 7.26949 1.17950
H 13.91380 7.02816 -0.23157
H 14.67452 3.46024 -3.83655
H 17.10752 3.71488 -7.38599
H 17.50254 1.98983 -6.75979
H 18.35502 3.47828 -6.28018

