%nproc=24
%mem=175gb
#p cam-b3lyp/Def2SVP td=(nstates=5)

TDDFT excited states in gaussian

0 1
Mg 0.00000 0.00000 0.00000
C -0.21700 -2.21800 2.80100
C -1.25500 2.44200 2.02600
C -0.24500 1.85000 -2.56400
C 0.14600 -2.82400 -2.03700
N -0.61700 -0.00900 2.12600
C -0.59400 -0.90800 3.10500
C -0.93600 -0.30900 4.50200
C -1.77300 0.96400 4.03200
C -1.15500 1.16800 2.66000
C -3.26300 0.68500 3.86300
C 0.34500 0.11000 5.29900
C 0.12400 0.39700 6.78700
H 1.16800 0.03300 7.73300
N -0.18500 1.96100 -0.15200
C -0.70300 2.80000 0.77700
C -0.62000 4.15600 0.19300
C -0.18700 4.01500 -1.22500
C -0.21400 2.58300 -1.38000
C -0.88700 5.40600 0.97400
C 0.18100 5.01300 -2.27700
O 0.30300 4.69000 -3.50800
C 0.31000 6.41400 -1.83700
N -0.26500 -0.41300 -2.02900
C -0.27900 0.56900 -2.93700
C -0.19600 0.02400 -4.33200
C 0.12400 -1.53300 -4.18000
C 0.08600 -1.63200 -2.63500
C -1.45100 0.20500 -5.19700
C 1.37300 -2.07000 -4.92300
C 2.62600 -1.49000 -4.30600
N 0.15000 -2.14400 0.30300
C 0.17300 -3.13600 -0.68800
C 0.17300 -4.43800 0.00400
C 0.13300 -4.11100 1.35800
C 0.08300 -2.69500 1.50200
C 0.14900 -5.71500 -0.62300
C 0.09600 -4.62900 2.71600
O 0.20800 -5.74700 3.22100
C -0.25500 -3.42800 3.70100
C 0.71700 -3.48200 4.84800
O 1.93100 -3.25500 4.66900
O 0.03800 -3.55600 6.00300
C 0.94300 -3.58300 7.18300
H -1.85900 3.22000 2.49700
H -0.21800 2.45300 -3.47400
H 0.27600 -3.74700 -2.60500
H -1.55400 -0.94900 5.13200
H -1.58500 1.83100 4.66500
H -3.48400 -0.37700 3.96900
H -3.51100 1.02700 2.85800
H -3.85200 1.30100 4.54300
H 0.66900 1.09600 4.96600
H 1.13000 -0.63900 5.18900
H -0.84400 0.02600 7.12500
H 0.06200 1.47700 6.92100
H -1.34400 5.18600 1.93800
H -1.65100 5.96300 0.43200
H 0.00700 6.02000 1.08400
H -0.63500 6.74400 -1.40500
H 0.66500 6.97000 -2.70400
H 1.04800 6.46600 -1.03600
H 0.60800 0.50100 -4.89100
H -0.69200 -2.15600 -4.54700
H -1.26700 0.74000 -6.12900
H -2.20400 0.71400 -4.59600
H -1.96700 -0.72000 -5.45300
H 1.35600 -1.75900 -5.96700
H 1.45200 -3.15700 -4.90200
H 2.71400 -0.52200 -4.79800
H 3.48700 -2.12100 -4.52900
H 2.49500 -1.30300 -3.24000
H 0.86700 -6.33300 -0.08400
H 0.40400 -5.64200 -1.68000
H -0.89100 -5.99900 -0.46300
H -1.28300 -3.58100 4.02800
H 0.69800 -4.47800 7.75500
H 0.83300 -2.61900 7.68000
H 2.00000 -3.75400 6.97600
Mg 7.88945 0.71695 0.60330
C 7.49016 -0.08567 4.07827
C 6.67160 3.81831 1.33338
C 7.80397 1.30815 -2.51289
C 7.97715 -2.70807 -0.03482
N 7.20440 1.62922 2.49823
C 7.15633 1.24867 3.76599
C 6.80356 2.38307 4.76511
C 6.02731 3.36058 3.75476
C 6.69568 2.94124 2.44705
C 4.54134 3.06034 3.64940
C 8.08052 3.07147 5.36302
C 7.81878 3.97336 6.57126
H 8.82258 4.02660 7.63052
N 7.79225 2.44117 -0.37456
C 7.28743 3.60721 0.08017
C 7.43077 4.56631 -1.02605
C 7.91034 3.82930 -2.22670
C 7.83253 2.46421 -1.74655
C 7.19916 6.04019 -0.86031
C 8.35212 4.27788 -3.58678
O 8.50103 3.44964 -4.55356
C 8.51499 5.72639 -3.77855
N 7.67809 -0.51258 -1.05981
C 7.72734 -0.00639 -2.30451
C 7.82968 -1.10434 -3.33622
C 8.08364 -2.44911 -2.50876
C 7.99120 -1.88473 -1.07408
C 6.60924 -1.28513 -4.23857
C 9.33328 -3.28726 -2.89424
C 10.59241 -2.53004 -2.53845
N 7.94584 -1.08585 1.79275
C 7.95272 -2.41763 1.32328
C 7.87728 -3.29720 2.50780
C 7.80797 -2.40883 3.59154
C 7.81773 -1.07013 3.11479
C 7.83065 -4.71969 2.48605
C 7.71806 -2.29919 5.02980
O 7.76094 -3.09618 5.96613
C 7.38075 -0.79108 5.40154
C 8.31295 -0.36434 6.50218
O 9.53641 -0.27826 6.29635
O 7.58871 0.07865 7.54602
C 8.46921 0.52360 8.65893
H 6.09108 4.73812 1.40983
H 7.88472 1.45588 -3.59230
H 8.09833 -3.78793 -0.14389
H 6.14695 2.08751 5.57461
H 6.23903 4.40393 3.97373
H 4.27324 2.16074 4.18323
H 4.33818 2.94785 2.59246
H 3.95781 3.92508 3.97810
H 8.45276 3.81732 4.64896
H 8.82581 2.34124 5.61188
H 6.82012 3.81413 6.99584
H 7.80334 5.01200 6.23213
H 6.69601 6.26412 0.08842
H 6.47691 6.33867 -1.62786
H 8.11166 6.62678 -0.98649
H 7.57296 6.22681 -3.56733
H 8.92100 5.84408 -4.78512
H 9.23967 6.09711 -3.04504
H 8.66973 -0.93541 -3.99870
H 7.25175 -3.15987 -2.62106
H 6.84664 -1.20085 -5.31589
H 5.86385 -0.55398 -3.95511
H 6.07344 -2.22380 -4.10811
H 9.36275 -3.44823 -3.97469
H 9.36081 -4.26373 -2.42229
H 10.72984 -1.86340 -3.39506
H 11.43269 -3.21300 -2.43101
H 10.43718 -1.90197 -1.65353
H 8.49863 -5.06503 3.26389
H 8.11652 -5.11201 1.51233
H 6.77098 -4.88338 2.69956
H 6.33616 -0.75630 5.71331
H 8.16621 -0.03595 9.54931
H 8.36871 1.62458 8.69749
H 9.52113 0.27025 8.59774

