%nproc=24
%mem=175gb
#p cam-b3lyp/Def2SVP td=(nstates=5)

TDDFT excited states in gaussian

0 1
Mg 0.00000 0.00000 0.00000
C -0.21700 -2.21800 2.80100
C -1.25500 2.44200 2.02600
C -0.24500 1.85000 -2.56400
C 0.14600 -2.82400 -2.03700
N -0.61700 -0.00900 2.12600
C -0.59400 -0.90800 3.10500
C -0.93600 -0.30900 4.50200
C -1.77300 0.96400 4.03200
C -1.15500 1.16800 2.66000
C -3.26300 0.68500 3.86300
C 0.34500 0.11000 5.29900
C 0.12400 0.39700 6.78700
H 1.16800 0.03300 7.73300
N -0.18500 1.96100 -0.15200
C -0.70300 2.80000 0.77700
C -0.62000 4.15600 0.19300
C -0.18700 4.01500 -1.22500
C -0.21400 2.58300 -1.38000
C -0.88700 5.40600 0.97400
C 0.18100 5.01300 -2.27700
O 0.30300 4.69000 -3.50800
C 0.31000 6.41400 -1.83700
N -0.26500 -0.41300 -2.02900
C -0.27900 0.56900 -2.93700
C -0.19600 0.02400 -4.33200
C 0.12400 -1.53300 -4.18000
C 0.08600 -1.63200 -2.63500
C -1.45100 0.20500 -5.19700
C 1.37300 -2.07000 -4.92300
C 2.62600 -1.49000 -4.30600
N 0.15000 -2.14400 0.30300
C 0.17300 -3.13600 -0.68800
C 0.17300 -4.43800 0.00400
C 0.13300 -4.11100 1.35800
C 0.08300 -2.69500 1.50200
C 0.14900 -5.71500 -0.62300
C 0.09600 -4.62900 2.71600
O 0.20800 -5.74700 3.22100
C -0.25500 -3.42800 3.70100
C 0.71700 -3.48200 4.84800
O 1.93100 -3.25500 4.66900
O 0.03800 -3.55600 6.00300
C 0.94300 -3.58300 7.18300
H -1.85900 3.22000 2.49700
H -0.21800 2.45300 -3.47400
H 0.27600 -3.74700 -2.60500
H -1.55400 -0.94900 5.13200
H -1.58500 1.83100 4.66500
H -3.48400 -0.37700 3.96900
H -3.51100 1.02700 2.85800
H -3.85200 1.30100 4.54300
H 0.66900 1.09600 4.96600
H 1.13000 -0.63900 5.18900
H -0.84400 0.02600 7.12500
H 0.06200 1.47700 6.92100
H -1.34400 5.18600 1.93800
H -1.65100 5.96300 0.43200
H 0.00700 6.02000 1.08400
H -0.63500 6.74400 -1.40500
H 0.66500 6.97000 -2.70400
H 1.04800 6.46600 -1.03600
H 0.60800 0.50100 -4.89100
H -0.69200 -2.15600 -4.54700
H -1.26700 0.74000 -6.12900
H -2.20400 0.71400 -4.59600
H -1.96700 -0.72000 -5.45300
H 1.35600 -1.75900 -5.96700
H 1.45200 -3.15700 -4.90200
H 2.71400 -0.52200 -4.79800
H 3.48700 -2.12100 -4.52900
H 2.49500 -1.30300 -3.24000
H 0.86700 -6.33300 -0.08400
H 0.40400 -5.64200 -1.68000
H -0.89100 -5.99900 -0.46300
H -1.28300 -3.58100 4.02800
H 0.69800 -4.47800 7.75500
H 0.83300 -2.61900 7.68000
H 2.00000 -3.75400 6.97600
Mg 15.76537 1.42181 1.18738
C 17.86811 -1.08587 -0.28540
C 17.82616 3.75537 -0.20626
C 14.20462 3.63937 2.83478
C 14.58516 -1.03883 3.35488
N 17.57973 1.23508 -0.06380
C 18.24996 0.23229 -0.61112
C 19.34304 0.66627 -1.62423
C 19.60501 2.15190 -1.07363
C 18.24324 2.41996 -0.43613
C 20.66262 2.21213 0.01594
C 18.81476 0.68605 -3.10157
C 19.90243 0.79947 -4.17201
H 19.71274 0.09110 -5.43483
N 15.66871 3.38654 0.92460
C 16.58259 4.17222 0.31729
C 16.05442 5.54266 0.40141
C 14.83376 5.52351 1.25249
C 14.86755 4.15608 1.73111
C 16.65520 6.69391 -0.35167
C 13.81295 6.56730 1.59107
O 12.96745 6.39954 2.53967
C 13.89242 7.82952 0.84143
N 14.72584 1.37057 2.98713
C 14.09521 2.46308 3.45259
C 13.19107 2.11857 4.61200
C 13.16120 0.52078 4.67351
C 14.16795 0.20525 3.54555
C 13.61380 2.67217 5.97260
C 11.76536 -0.15922 4.62997
C 11.12972 0.05342 3.27493
N 15.99667 -0.71714 1.38594
C 15.43454 -1.54721 2.38046
C 15.97026 -2.90720 2.16635
C 16.83155 -2.76814 1.06756
C 16.84805 -1.41283 0.64052
C 15.68348 -4.04964 2.96555
C 17.73867 -3.45759 0.17847
O 18.05826 -4.63279 0.00381
C 18.54732 -2.37450 -0.65782
C 18.51980 -2.78864 -2.10359
O 17.44864 -2.80834 -2.73513
O 19.78234 -2.88241 -2.55920
C 19.80688 -3.27984 -3.99212
H 18.53290 4.56130 -0.40595
H 13.56365 4.34252 3.37163
H 14.19058 -1.88105 3.92728
H 20.25771 0.08720 -1.58142
H 19.78860 2.84821 -1.88775
H 20.98017 1.22706 0.32407
H 20.20332 2.73753 0.84301
H 21.50203 2.83432 -0.30749
H 18.27894 1.62766 -3.27765
H 18.20194 -0.17201 -3.29858
H 20.90206 0.60122 -3.76656
H 19.95091 1.83785 -4.50882
H 17.64009 6.43687 -0.76072
H 16.86241 7.48173 0.38062
H 15.98615 7.09092 -1.11811
H 14.87110 8.27859 0.99306
H 13.02706 8.41377 1.16030
H 13.81067 7.60683 -0.22831
H 12.18559 2.48247 4.43972
H 13.60432 0.14055 5.60566
H 12.83542 3.29625 6.45085
H 14.52725 3.23713 5.84239
H 13.90827 1.92243 6.70497
H 11.09699 0.30083 5.36195
H 11.79582 -1.22214 4.84504
H 10.68303 1.04811 3.36525
H 10.37185 -0.70376 3.08425
H 11.89020 0.10389 2.48704
H 15.51499 -4.87239 2.28350
H 14.82055 -3.88021 3.60619
H 16.61159 -4.12485 3.53845
H 19.56236 -2.34432 -0.25987
H 20.42789 -4.17810 -4.06394
H 20.14985 -2.38487 -4.54454
H 18.87952 -3.62816 -4.43159

