%nproc=24
%mem=175gb
#p cam-b3lyp/Def2SVP td=(nstates=5)

TDDFT excited states in gaussian

0 1
Mg 0.00000 0.00000 0.00000
C -0.21700 -2.21800 2.80100
C -1.25500 2.44200 2.02600
C -0.24500 1.85000 -2.56400
C 0.14600 -2.82400 -2.03700
N -0.61700 -0.00900 2.12600
C -0.59400 -0.90800 3.10500
C -0.93600 -0.30900 4.50200
C -1.77300 0.96400 4.03200
C -1.15500 1.16800 2.66000
C -3.26300 0.68500 3.86300
C 0.34500 0.11000 5.29900
C 0.12400 0.39700 6.78700
H 1.16800 0.03300 7.73300
N -0.18500 1.96100 -0.15200
C -0.70300 2.80000 0.77700
C -0.62000 4.15600 0.19300
C -0.18700 4.01500 -1.22500
C -0.21400 2.58300 -1.38000
C -0.88700 5.40600 0.97400
C 0.18100 5.01300 -2.27700
O 0.30300 4.69000 -3.50800
C 0.31000 6.41400 -1.83700
N -0.26500 -0.41300 -2.02900
C -0.27900 0.56900 -2.93700
C -0.19600 0.02400 -4.33200
C 0.12400 -1.53300 -4.18000
C 0.08600 -1.63200 -2.63500
C -1.45100 0.20500 -5.19700
C 1.37300 -2.07000 -4.92300
C 2.62600 -1.49000 -4.30600
N 0.15000 -2.14400 0.30300
C 0.17300 -3.13600 -0.68800
C 0.17300 -4.43800 0.00400
C 0.13300 -4.11100 1.35800
C 0.08300 -2.69500 1.50200
C 0.14900 -5.71500 -0.62300
C 0.09600 -4.62900 2.71600
O 0.20800 -5.74700 3.22100
C -0.25500 -3.42800 3.70100
C 0.71700 -3.48200 4.84800
O 1.93100 -3.25500 4.66900
O 0.03800 -3.55600 6.00300
C 0.94300 -3.58300 7.18300
H -1.85900 3.22000 2.49700
H -0.21800 2.45300 -3.47400
H 0.27600 -3.74700 -2.60500
H -1.55400 -0.94900 5.13200
H -1.58500 1.83100 4.66500
H -3.48400 -0.37700 3.96900
H -3.51100 1.02700 2.85800
H -3.85200 1.30100 4.54300
H 0.66900 1.09600 4.96600
H 1.13000 -0.63900 5.18900
H -0.84400 0.02600 7.12500
H 0.06200 1.47700 6.92100
H -1.34400 5.18600 1.93800
H -1.65100 5.96300 0.43200
H 0.00700 6.02000 1.08400
H -0.63500 6.74400 -1.40500
H 0.66500 6.97000 -2.70400
H 1.04800 6.46600 -1.03600
H 0.60800 0.50100 -4.89100
H -0.69200 -2.15600 -4.54700
H -1.26700 0.74000 -6.12900
H -2.20400 0.71400 -4.59600
H -1.96700 -0.72000 -5.45300
H 1.35600 -1.75900 -5.96700
H 1.45200 -3.15700 -4.90200
H 2.71400 -0.52200 -4.79800
H 3.48700 -2.12100 -4.52900
H 2.49500 -1.30300 -3.24000
H 0.86700 -6.33300 -0.08400
H 0.40400 -5.64200 -1.68000
H -0.89100 -5.99900 -0.46300
H -1.28300 -3.58100 4.02800
H 0.69800 -4.47800 7.75500
H 0.83300 -2.61900 7.68000
H 2.00000 -3.75400 6.97600
Mg 13.13665 1.17552 1.00548
C 11.05041 3.03159 3.25974
C 15.31575 0.76477 3.59727
C 15.20016 -0.07126 -1.05726
C 11.40171 2.67816 -1.61707
N 13.07905 1.85645 3.10912
C 12.20704 2.50192 3.86892
C 12.55737 2.51503 5.38109
C 14.14367 2.29497 5.26233
C 14.18909 1.56115 3.92363
C 14.92243 3.59240 5.12248
C 11.87155 1.34066 6.16373
C 11.91789 1.47007 7.68782
H 10.77630 0.99073 8.46208
N 14.73531 0.04104 1.31500
C 15.48686 -0.01798 2.43436
C 16.55660 -0.98701 2.15008
C 16.47166 -1.37190 0.71504
C 15.45656 -0.44634 0.25351
C 17.47867 -1.51544 3.21026
C 17.19469 -2.39403 -0.10879
O 17.13132 -2.39436 -1.38895
C 18.05365 -3.33697 0.62232
N 13.42602 1.44345 -1.03580
C 14.35920 0.73926 -1.70004
C 14.19944 0.89482 -3.19358
C 12.81014 1.65964 -3.39970
C 12.43386 1.90357 -1.92176
C 15.31318 1.66250 -3.90537
C 11.76422 0.98156 -4.32649
C 11.25902 -0.29272 -3.68902
N 11.40339 2.45149 0.81628
C 10.86337 2.98575 -0.37410
C 9.75769 3.88507 0.01465
C 9.74595 3.82901 1.41651
C 10.78485 2.97209 1.87025
C 8.95763 4.65351 -0.87727
C 9.09773 4.30820 2.61605
O 8.10160 4.99080 2.85168
C 9.99411 3.91221 3.86749
C 9.09433 3.30897 4.91104
O 8.51412 2.22981 4.69797
O 9.23749 3.98940 6.06294
C 8.37322 3.42158 7.13179
H 16.16959 0.77118 4.27536
H 15.81442 -0.56081 -1.81653
H 10.74893 3.10770 -2.37999
H 12.34854 3.44966 5.88767
H 14.51468 1.65654 6.05990
H 14.26878 4.44418 5.00693
H 15.54298 3.46983 4.24445
H 15.61099 3.71133 5.96395
H 12.46753 0.42806 6.03445
H 10.85630 1.21063 5.84282
H 12.20207 2.48009 8.00728
H 12.72145 0.83337 8.06587
H 17.40935 -0.92693 4.13344
H 18.50179 -1.34717 2.85705
H 17.33978 -2.58271 3.39549
H 18.80687 -2.78323 1.17775
H 18.41435 -4.04470 -0.12660
H 17.44235 -3.86563 1.36221
H 14.14397 -0.07166 -3.67932
H 12.95414 2.65051 -3.85497
H 15.79400 1.08263 -4.71571
H 16.04500 1.96422 -3.16786
H 15.01378 2.61593 -4.33725
H 12.22782 0.69252 -5.27290
H 10.91918 1.61936 -4.56337
H 12.02648 -1.02451 -3.95842
H 10.28962 -0.56816 -4.09943
H 11.25171 -0.20992 -2.59598
H 7.93421 4.55581 -0.54029
H 9.07242 4.31624 -1.90530
H 9.38873 5.64586 -0.72026
H 10.48083 4.82136 4.22262
H 7.75125 4.23968 7.50802
H 9.06358 2.94192 7.85087
H 7.61930 2.70114 6.83682

