%nproc=24
%mem=175gb
#p cam-b3lyp/Def2SVP td=(nstates=5)

TDDFT excited states in gaussian

0 1
Mg 0.00000 0.00000 0.00000
C -0.21700 -2.21800 2.80100
C -1.25500 2.44200 2.02600
C -0.24500 1.85000 -2.56400
C 0.14600 -2.82400 -2.03700
N -0.61700 -0.00900 2.12600
C -0.59400 -0.90800 3.10500
C -0.93600 -0.30900 4.50200
C -1.77300 0.96400 4.03200
C -1.15500 1.16800 2.66000
C -3.26300 0.68500 3.86300
C 0.34500 0.11000 5.29900
C 0.12400 0.39700 6.78700
H 1.16800 0.03300 7.73300
N -0.18500 1.96100 -0.15200
C -0.70300 2.80000 0.77700
C -0.62000 4.15600 0.19300
C -0.18700 4.01500 -1.22500
C -0.21400 2.58300 -1.38000
C -0.88700 5.40600 0.97400
C 0.18100 5.01300 -2.27700
O 0.30300 4.69000 -3.50800
C 0.31000 6.41400 -1.83700
N -0.26500 -0.41300 -2.02900
C -0.27900 0.56900 -2.93700
C -0.19600 0.02400 -4.33200
C 0.12400 -1.53300 -4.18000
C 0.08600 -1.63200 -2.63500
C -1.45100 0.20500 -5.19700
C 1.37300 -2.07000 -4.92300
C 2.62600 -1.49000 -4.30600
N 0.15000 -2.14400 0.30300
C 0.17300 -3.13600 -0.68800
C 0.17300 -4.43800 0.00400
C 0.13300 -4.11100 1.35800
C 0.08300 -2.69500 1.50200
C 0.14900 -5.71500 -0.62300
C 0.09600 -4.62900 2.71600
O 0.20800 -5.74700 3.22100
C -0.25500 -3.42800 3.70100
C 0.71700 -3.48200 4.84800
O 1.93100 -3.25500 4.66900
O 0.03800 -3.55600 6.00300
C 0.94300 -3.58300 7.18300
H -1.85900 3.22000 2.49700
H -0.21800 2.45300 -3.47400
H 0.27600 -3.74700 -2.60500
H -1.55400 -0.94900 5.13200
H -1.58500 1.83100 4.66500
H -3.48400 -0.37700 3.96900
H -3.51100 1.02700 2.85800
H -3.85200 1.30100 4.54300
H 0.66900 1.09600 4.96600
H 1.13000 -0.63900 5.18900
H -0.84400 0.02600 7.12500
H 0.06200 1.47700 6.92100
H -1.34400 5.18600 1.93800
H -1.65100 5.96300 0.43200
H 0.00700 6.02000 1.08400
H -0.63500 6.74400 -1.40500
H 0.66500 6.97000 -2.70400
H 1.04800 6.46600 -1.03600
H 0.60800 0.50100 -4.89100
H -0.69200 -2.15600 -4.54700
H -1.26700 0.74000 -6.12900
H -2.20400 0.71400 -4.59600
H -1.96700 -0.72000 -5.45300
H 1.35600 -1.75900 -5.96700
H 1.45200 -3.15700 -4.90200
H 2.71400 -0.52200 -4.79800
H 3.48700 -2.12100 -4.52900
H 2.49500 -1.30300 -3.24000
H 0.86700 -6.33300 -0.08400
H 0.40400 -5.64200 -1.68000
H -0.89100 -5.99900 -0.46300
H -1.28300 -3.58100 4.02800
H 0.69800 -4.47800 7.75500
H 0.83300 -2.61900 7.68000
H 2.00000 -3.75400 6.97600
Mg 7.88699 0.71715 0.60532
C 8.73035 -1.25826 3.48030
C 5.77625 2.48107 2.62223
C 6.78924 2.17810 -1.98852
C 9.14943 -1.86455 -1.36618
N 7.40309 0.53985 2.75628
C 7.83152 -0.20835 3.76176
C 7.32692 0.24181 5.15901
C 6.00044 1.01986 4.69644
C 6.42463 1.40598 3.28093
C 4.77842 0.12163 4.60058
C 8.33642 1.20446 5.87748
C 8.05670 1.43657 7.36397
H 9.19143 1.59891 8.26868
N 6.87534 2.41425 0.41837
C 6.08594 2.99729 1.34476
C 5.55518 4.21485 0.71229
C 5.96452 4.21681 -0.71850
C 6.55417 2.89738 -0.82579
C 4.81298 5.27187 1.47731
C 5.83392 5.23252 -1.81279
O 6.04617 4.93088 -3.04031
C 5.35975 6.56639 -1.41600
N 7.76212 0.14420 -1.38930
C 7.29117 0.98923 -2.32313
C 7.55184 0.46443 -3.71490
C 8.51474 -0.79818 -3.52461
C 8.57474 -0.84045 -1.98189
C 6.31555 0.04599 -4.51045
C 9.85107 -0.78979 -4.31634
C 10.75640 0.30013 -3.78925
N 8.94711 -1.13239 0.95666
C 9.35783 -2.07691 -0.00939
C 9.93719 -3.22291 0.72098
C 9.80131 -2.87291 2.07284
C 9.16276 -1.60774 2.17814
C 10.44975 -4.41240 0.13064
C 10.04324 -3.29082 3.43502
O 10.63180 -4.23350 3.96293
C 9.24637 -2.32109 4.41022
C 10.18145 -1.89663 5.50929
O 11.17678 -1.19516 5.25656
O 9.63171 -2.20325 6.69847
C 10.51705 -1.79155 7.82030
H 4.92089 2.94868 3.11068
H 6.52897 2.68786 -2.91904
H 9.65347 -2.66535 -1.91146
H 7.06795 -0.56766 5.83093
H 5.83284 1.90815 5.29993
H 5.03045 -0.91835 4.74569
H 4.37522 0.27836 3.60866
H 4.00598 0.46045 5.29690
H 8.19121 2.22393 5.49755
H 9.34533 0.86371 5.74854
H 7.34425 0.70717 7.76813
H 7.54874 2.39758 7.47556
H 4.52067 4.91701 2.47333
H 3.86274 5.43503 0.95742
H 5.35687 6.21770 1.52465
H 4.38392 6.47729 -0.94454
H 5.41723 7.17750 -2.31884
H 6.04039 6.96821 -0.65713
H 8.06000 1.20604 -4.31897
H 8.03047 -1.73202 -3.84597
H 6.21920 0.57481 -5.47748
H 5.44111 0.21460 -3.89607
H 6.24412 -1.01857 -4.72680
H 9.66658 -0.55833 -5.36826
H 10.37894 -1.73701 -4.28279
H 10.39866 1.19231 -4.31187
H 11.79483 0.08810 -4.03572
H 10.59652 0.46009 -2.71663
H 11.37306 -4.64260 0.64543
H 10.60989 -4.28861 -0.93838
H 9.63165 -5.10504 0.34565
H 8.38845 -2.87474 4.79367
H 10.69490 -2.68248 8.43046
H 10.00510 -0.94087 8.30817
H 11.53088 -1.49646 7.57633

