%nproc=24
%mem=175gb
#p cam-b3lyp/Def2SVP td=(nstates=5)

TDDFT excited states in gaussian

0 1
Mg 13.13123 1.17902 1.00468
C 12.83829 3.89949 3.32682
C 14.06349 -0.77447 3.64085
C 13.83230 -1.11553 -1.07160
C 13.29700 3.55282 -1.54155
N 13.38096 1.62003 3.15768
C 13.18172 2.67397 3.93476
C 13.28210 2.37991 5.45562
C 14.21386 1.07378 5.38702
C 13.84276 0.58193 3.98950
C 15.69955 1.39291 5.40218
C 11.88626 2.05679 6.09534
C 11.86296 2.06389 7.62543
H 10.66222 2.54793 8.30101
N 13.36577 -0.77259 1.27809
C 13.72527 -1.39699 2.41921
C 13.77782 -2.83073 2.09394
C 13.58067 -2.98649 0.62711
C 13.60659 -1.59922 0.20888
C 13.91842 -3.89788 3.14030
C 13.41131 -4.18620 -0.25505
O 13.49291 -4.10044 -1.53130
C 13.24017 -5.47950 0.42286
N 13.72202 1.21326 -0.98834
C 13.91095 0.07162 -1.67310
C 14.06093 0.34071 -3.15144
C 13.69047 1.88412 -3.34695
C 13.46709 2.27970 -1.87080
C 15.44593 0.07160 -3.73944
C 12.57666 2.21545 -4.37764
C 11.24543 1.69668 -3.88361
N 12.89603 3.32175 0.85812
C 13.03246 4.11756 -0.30039
C 12.89465 5.52684 0.12077
C 12.70910 5.45379 1.50956
C 12.74997 4.09615 1.92743
C 12.99491 6.66313 -0.73064
C 12.49856 6.21716 2.71854
O 12.29294 7.40339 2.97218
C 12.69914 5.25314 3.96627
C 11.54678 5.46759 4.90892
O 10.38918 5.16297 4.57163
O 12.02575 5.79095 6.12399
C 10.92081 6.00280 7.09664
H 14.58321 -1.41539 4.35358
H 13.96921 -1.87477 -1.84509
H 13.23891 4.34648 -2.28949
H 13.76897 3.15386 6.03677
H 13.92509 0.34272 6.13770
H 15.88419 2.45490 5.33720
H 16.11875 0.88285 4.54476
H 16.17249 0.94445 6.28055
H 11.64210 1.00310 5.90861
H 11.13203 2.72042 5.71938
H 12.75845 2.53454 8.04912
H 11.91088 1.03074 7.97801
H 14.20833 -3.47473 4.10998
H 14.77158 -4.52033 2.84957
H 13.03099 -4.52941 3.21975
H 14.10070 -5.67006 1.05975
H 13.04506 -6.20236 -0.37168
H 12.36799 -5.41574 1.08305
H 13.36896 -0.26234 -3.72643
H 14.55227 2.46822 -3.70186
H 15.43142 -0.65004 -4.57795
H 16.09117 -0.28070 -2.94567
H 15.97642 0.95365 -4.09408
H 12.77483 1.70883 -5.32538
H 12.48751 3.27531 -4.59152
H 11.26294 0.64517 -4.18545
H 10.42559 2.23047 -4.36003
H 11.19384 1.72459 -2.78898
H 12.19436 7.33440 -0.44955
H 12.92858 6.38119 -1.77940
H 13.99346 7.01935 -0.46371
H 13.65583 5.50585 4.42504
H 11.05455 7.00344 7.51914
H 10.97238 5.14887 7.79800
H 9.91335 6.07219 6.70339

