%nproc=24
%mem=175gb
#p cam-b3lyp/Def2SVP td=(nstates=5)

TDDFT excited states in gaussian

0 1
Mg 0.00000 0.00000 0.00000
C -0.21700 -2.21800 2.80100
C -1.25500 2.44200 2.02600
C -0.24500 1.85000 -2.56400
C 0.14600 -2.82400 -2.03700
N -0.61700 -0.00900 2.12600
C -0.59400 -0.90800 3.10500
C -0.93600 -0.30900 4.50200
C -1.77300 0.96400 4.03200
C -1.15500 1.16800 2.66000
C -3.26300 0.68500 3.86300
C 0.34500 0.11000 5.29900
C 0.12400 0.39700 6.78700
H 1.16800 0.03300 7.73300
N -0.18500 1.96100 -0.15200
C -0.70300 2.80000 0.77700
C -0.62000 4.15600 0.19300
C -0.18700 4.01500 -1.22500
C -0.21400 2.58300 -1.38000
C -0.88700 5.40600 0.97400
C 0.18100 5.01300 -2.27700
O 0.30300 4.69000 -3.50800
C 0.31000 6.41400 -1.83700
N -0.26500 -0.41300 -2.02900
C -0.27900 0.56900 -2.93700
C -0.19600 0.02400 -4.33200
C 0.12400 -1.53300 -4.18000
C 0.08600 -1.63200 -2.63500
C -1.45100 0.20500 -5.19700
C 1.37300 -2.07000 -4.92300
C 2.62600 -1.49000 -4.30600
N 0.15000 -2.14400 0.30300
C 0.17300 -3.13600 -0.68800
C 0.17300 -4.43800 0.00400
C 0.13300 -4.11100 1.35800
C 0.08300 -2.69500 1.50200
C 0.14900 -5.71500 -0.62300
C 0.09600 -4.62900 2.71600
O 0.20800 -5.74700 3.22100
C -0.25500 -3.42800 3.70100
C 0.71700 -3.48200 4.84800
O 1.93100 -3.25500 4.66900
O 0.03800 -3.55600 6.00300
C 0.94300 -3.58300 7.18300
H -1.85900 3.22000 2.49700
H -0.21800 2.45300 -3.47400
H 0.27600 -3.74700 -2.60500
H -1.55400 -0.94900 5.13200
H -1.58500 1.83100 4.66500
H -3.48400 -0.37700 3.96900
H -3.51100 1.02700 2.85800
H -3.85200 1.30100 4.54300
H 0.66900 1.09600 4.96600
H 1.13000 -0.63900 5.18900
H -0.84400 0.02600 7.12500
H 0.06200 1.47700 6.92100
H -1.34400 5.18600 1.93800
H -1.65100 5.96300 0.43200
H 0.00700 6.02000 1.08400
H -0.63500 6.74400 -1.40500
H 0.66500 6.97000 -2.70400
H 1.04800 6.46600 -1.03600
H 0.60800 0.50100 -4.89100
H -0.69200 -2.15600 -4.54700
H -1.26700 0.74000 -6.12900
H -2.20400 0.71400 -4.59600
H -1.96700 -0.72000 -5.45300
H 1.35600 -1.75900 -5.96700
H 1.45200 -3.15700 -4.90200
H 2.71400 -0.52200 -4.79800
H 3.48700 -2.12100 -4.52900
H 2.49500 -1.30300 -3.24000
H 0.86700 -6.33300 -0.08400
H 0.40400 -5.64200 -1.68000
H -0.89100 -5.99900 -0.46300
H -1.28300 -3.58100 4.02800
H 0.69800 -4.47800 7.75500
H 0.83300 -2.61900 7.68000
H 2.00000 -3.75400 6.97600
Mg 7.88252 0.71433 0.60835
C 6.02655 -1.74994 2.44186
C 5.35343 2.90225 1.28012
C 9.26890 2.77040 -1.37103
C 9.65207 -1.90792 -0.85392
N 5.98795 0.48759 1.72702
C 5.41806 -0.47750 2.43282
C 4.16600 -0.03360 3.23586
C 3.74832 1.23702 2.34707
C 5.11744 1.59351 1.77167
C 2.82219 0.88682 1.19426
C 4.51676 0.38472 4.70691
C 3.31149 0.53288 5.63811
H 3.46238 0.14749 7.03853
N 7.65459 2.67764 0.42943
C 6.57145 3.40573 0.77293
C 6.89504 4.79764 0.42358
C 8.19234 4.80882 -0.30554
C 8.41695 3.38616 -0.46573
C 6.04859 5.96157 0.85046
C 9.07717 5.91679 -0.79099
O 10.03900 5.70059 -1.61012
C 8.72667 7.27561 -0.35254
N 9.11280 0.46514 -1.04896
C 9.62123 1.52702 -1.69844
C 10.69066 1.10647 -2.67815
C 10.96556 -0.43982 -2.37651
C 9.89744 -0.67888 -1.28685
C 10.34490 1.28267 -4.15659
C 12.43359 -0.84783 -2.07467
C 12.87469 -0.25114 -0.75756
N 7.99701 -1.42622 0.87852
C 8.78454 -2.33802 0.14196
C 8.43743 -3.69393 0.61466
C 7.44757 -3.47660 1.58493
C 7.18112 -2.08497 1.69389
C 8.97925 -4.91249 0.11699
C 6.55990 -4.10876 2.53420
O 6.40193 -5.25819 2.94357
C 5.51010 -3.02843 3.04134
C 5.43725 -3.11980 4.54096
O 6.42187 -2.82416 5.24076
O 4.15992 -3.32964 4.90809
C 4.03486 -3.41648 6.38750
H 4.51637 3.59976 1.23894
H 9.85364 3.44419 -2.00157
H 10.22957 -2.77156 -1.19050
H 3.35869 -0.75587 3.25449
H 3.37285 2.04671 2.96739
H 2.69185 -0.18029 1.09205
H 3.28747 1.29775 0.30786
H 1.86841 1.41073 1.30443
H 4.88281 1.41949 4.70730
H 5.22495 -0.29592 5.13799
H 2.40441 0.08690 5.21238
H 3.07107 1.59500 5.72820
H 5.07363 5.63203 1.23029
H 5.80926 6.53156 -0.05381
H 6.56082 6.61824 1.55691
H 7.71507 7.50965 -0.67559
H 9.52522 7.91876 -0.72744
H 8.72056 7.29909 0.74292
H 11.60484 1.66413 -2.51571
H 10.69132 -1.07657 -3.23044
H 11.06988 1.91599 -4.70192
H 9.34853 1.69842 -4.22692
H 10.24953 0.35727 -4.72204
H 13.10339 -0.44433 -2.83802
H 12.58651 -1.92153 -2.04703
H 13.17505 0.76378 -1.03470
H 13.71102 -0.81127 -0.34421
H 12.03189 -0.16705 -0.06168
H 9.19137 -5.53322 0.97734
H 9.87338 -4.73657 -0.47744
H 8.14278 -5.26288 -0.49358
H 4.55291 -3.25550 2.57038
H 3.55091 -4.37211 6.61167
H 3.50243 -2.49744 6.69675
H 4.94879 -3.50197 6.96358

