%nproc=24
%mem=175gb
#p cam-b3lyp/Def2SVP td=(nstates=5)

TDDFT excited states in gaussian

0 1
Mg 10.52044 0.95050 0.79687
C 12.54483 -1.17102 2.86570
C 11.56465 3.56850 2.71789
C 8.40785 2.77295 -0.71411
C 8.78803 -1.90558 -0.19672
N 11.88031 1.05834 2.53796
C 12.63981 0.19660 3.19743
C 13.61187 0.84618 4.21856
C 12.80951 2.21274 4.47857
C 12.06095 2.31305 3.15107
C 11.78626 2.10636 5.59704
C 15.02916 1.12032 3.60362
C 16.11679 1.46541 4.62330
H 17.47724 0.99605 4.37558
N 10.40769 2.92566 0.64000
C 10.90658 3.83991 1.49822
C 10.54078 5.15293 0.94476
C 9.64369 4.93644 -0.22275
C 9.43022 3.50612 -0.12950
C 11.09786 6.44269 1.47354
C 9.06248 5.86523 -1.24536
O 8.11753 5.49732 -2.02929
C 9.56750 7.24596 -1.23916
N 8.70833 0.53365 -0.13309
C 8.01458 1.49994 -0.75993
C 6.89252 0.91758 -1.58590
C 7.12770 -0.66425 -1.57557
C 8.34717 -0.73261 -0.63026
C 5.47746 1.22466 -1.09631
C 7.22176 -1.37080 -2.95564
C 8.47742 -0.93335 -3.67490
N 10.73585 -1.17946 1.08832
C 9.88425 -2.19695 0.60502
C 10.37605 -3.47549 1.15809
C 11.47453 -3.10755 1.94957
C 11.64234 -1.69696 1.90985
C 9.78898 -4.75461 0.94519
C 12.52382 -3.59059 2.81811
O 12.93092 -4.70210 3.15360
C 13.18639 -2.34549 3.55100
C 14.68035 -2.48668 3.44760
O 15.24596 -2.42538 2.34174
O 15.21271 -2.45262 4.68283
C 16.69375 -2.57802 4.63178
H 11.64873 4.42058 3.39300
H 7.71591 3.34327 -1.33815
H 8.36184 -2.85160 -0.53745
H 13.72677 0.30003 5.14715
H 13.48863 3.05295 4.59780
H 11.68423 1.09254 5.95466
H 10.85242 2.45464 5.17551
H 12.03303 2.80519 6.40145
H 14.99798 2.05983 3.03696
H 15.34903 0.29331 3.00001
H 15.80966 1.22931 5.64939
H 16.25674 2.54911 4.62805
H 11.59997 6.29851 2.43817
H 10.24406 7.08849 1.70560
H 11.73997 6.95162 0.75150
H 9.38788 7.69181 -0.26375
H 9.09945 7.73217 -2.09730
H 10.65401 7.22170 -1.37885
H 6.93977 1.27321 -2.60786
H 6.30773 -1.19479 -1.06959
H 4.85033 1.72352 -1.85914
H 5.54930 1.83413 -0.20529
H 4.91421 0.36301 -0.74204
H 6.38211 -1.07618 -3.58995
H 7.21005 -2.45354 -2.88825
H 8.17980 0.01215 -4.13809
H 8.76452 -1.66728 -4.42521
H 9.28194 -0.71312 -2.96364
H 10.60206 -5.44268 0.75556
H 9.08252 -4.73511 0.11797
H 9.29084 -4.90311 1.90700
H 12.84497 -2.35530 4.58681
H 16.96467 -3.42639 5.26782
H 17.08774 -1.58561 4.92097
H 17.13978 -2.87013 3.68828

