%nproc=24
%mem=175gb
#p cam-b3lyp/Def2SVP td=(nstates=5)

TDDFT excited states in gaussian

0 1
Mg 10.50832 0.95474 0.80429
C 12.65345 0.48659 3.64300
C 7.87050 0.81105 2.96203
C 8.57854 0.91361 -1.71398
C 13.16856 -0.07051 -1.20013
N 10.40327 0.68152 2.99667
C 11.28628 0.57562 3.97821
C 10.67517 0.64528 5.40343
C 9.18287 0.16979 5.04870
C 9.12698 0.60998 3.58727
C 9.00348 -1.33834 5.10047
C 10.69021 2.10062 5.98975
C 10.39555 2.19319 7.48854
H 11.08920 3.21124 8.27269
N 8.57051 1.35962 0.66453
C 7.64761 1.26955 1.64505
C 6.36819 1.65552 1.03001
C 6.58240 1.82172 -0.43327
C 7.94381 1.34067 -0.55670
C 5.12376 1.90782 1.83074
C 5.70264 2.31793 -1.54052
O 6.01361 2.15293 -2.77296
C 4.42203 2.91943 -1.14083
N 10.75436 0.28918 -1.14990
C 9.77476 0.43684 -2.05902
C 10.27462 0.13972 -3.45266
C 11.86171 -0.00413 -3.31827
C 12.00141 0.15327 -1.78821
C 9.70389 -1.11650 -4.11037
C 12.73044 0.89849 -4.23656
C 12.57308 2.34724 -3.83439
N 12.59781 0.49637 1.10757
C 13.52547 0.06151 0.13575
C 14.78997 -0.23137 0.84122
C 14.50110 0.03352 2.18840
C 13.14598 0.44192 2.31629
C 15.98262 -0.72449 0.24078
C 15.03137 0.05031 3.53273
O 16.14455 -0.11605 4.02960
C 13.82280 0.22286 4.55057
C 14.19745 1.29259 5.53942
O 14.35103 2.46983 5.16912
O 14.09977 0.79450 6.78551
C 14.45088 1.82153 7.80225
H 6.96780 0.55395 3.51694
H 7.98764 0.98602 -2.63000
H 14.07320 -0.30078 -1.76695
H 11.12031 -0.03223 6.12217
H 8.44587 0.70930 5.63787
H 9.94184 -1.85071 5.25243
H 8.57069 -1.61596 4.14828
H 8.26055 -1.60381 5.85805
H 9.82922 2.65483 5.59442
H 11.62052 2.58889 5.77355
H 10.46164 1.21628 7.98272
H 9.35200 2.48968 7.61938
H 5.22809 1.54588 2.86104
H 4.33466 1.28111 1.40129
H 4.80456 2.95162 1.79543
H 3.84362 2.19389 -0.57383
H 3.97458 3.29413 -2.06347
H 4.62503 3.75755 -0.46485
H 10.05173 0.95817 -4.12613
H 12.20066 -1.02181 -3.56173
H 9.20905 -0.91547 -5.07928
H 9.01238 -1.57958 -3.41907
H 10.42410 -1.91386 -4.28564
H 12.38927 0.82503 -5.27211
H 13.78385 0.63927 -4.22539
H 11.65419 2.64723 -4.34697
H 13.42419 2.93380 -4.17438
H 12.39453 2.43937 -2.75676
H 16.80217 -0.16349 0.66985
H 15.95403 -0.62273 -0.84208
H 15.94157 -1.77055 0.55599
H 13.66045 -0.74180 5.03291
H 15.25025 1.39989 8.41944
H 13.50187 2.07473 8.31119
H 14.91457 2.73607 7.45145

