%nproc=24
%mem=175gb
#p cam-b3lyp/Def2SVP td=(nstates=5)

TDDFT excited states in gaussian

0 1
Mg 0.00000 0.00000 0.00000
C -0.21700 -2.21800 2.80100
C -1.25500 2.44200 2.02600
C -0.24500 1.85000 -2.56400
C 0.14600 -2.82400 -2.03700
N -0.61700 -0.00900 2.12600
C -0.59400 -0.90800 3.10500
C -0.93600 -0.30900 4.50200
C -1.77300 0.96400 4.03200
C -1.15500 1.16800 2.66000
C -3.26300 0.68500 3.86300
C 0.34500 0.11000 5.29900
C 0.12400 0.39700 6.78700
H 1.16800 0.03300 7.73300
N -0.18500 1.96100 -0.15200
C -0.70300 2.80000 0.77700
C -0.62000 4.15600 0.19300
C -0.18700 4.01500 -1.22500
C -0.21400 2.58300 -1.38000
C -0.88700 5.40600 0.97400
C 0.18100 5.01300 -2.27700
O 0.30300 4.69000 -3.50800
C 0.31000 6.41400 -1.83700
N -0.26500 -0.41300 -2.02900
C -0.27900 0.56900 -2.93700
C -0.19600 0.02400 -4.33200
C 0.12400 -1.53300 -4.18000
C 0.08600 -1.63200 -2.63500
C -1.45100 0.20500 -5.19700
C 1.37300 -2.07000 -4.92300
C 2.62600 -1.49000 -4.30600
N 0.15000 -2.14400 0.30300
C 0.17300 -3.13600 -0.68800
C 0.17300 -4.43800 0.00400
C 0.13300 -4.11100 1.35800
C 0.08300 -2.69500 1.50200
C 0.14900 -5.71500 -0.62300
C 0.09600 -4.62900 2.71600
O 0.20800 -5.74700 3.22100
C -0.25500 -3.42800 3.70100
C 0.71700 -3.48200 4.84800
O 1.93100 -3.25500 4.66900
O 0.03800 -3.55600 6.00300
C 0.94300 -3.58300 7.18300
H -1.85900 3.22000 2.49700
H -0.21800 2.45300 -3.47400
H 0.27600 -3.74700 -2.60500
H -1.55400 -0.94900 5.13200
H -1.58500 1.83100 4.66500
H -3.48400 -0.37700 3.96900
H -3.51100 1.02700 2.85800
H -3.85200 1.30100 4.54300
H 0.66900 1.09600 4.96600
H 1.13000 -0.63900 5.18900
H -0.84400 0.02600 7.12500
H 0.06200 1.47700 6.92100
H -1.34400 5.18600 1.93800
H -1.65100 5.96300 0.43200
H 0.00700 6.02000 1.08400
H -0.63500 6.74400 -1.40500
H 0.66500 6.97000 -2.70400
H 1.04800 6.46600 -1.03600
H 0.60800 0.50100 -4.89100
H -0.69200 -2.15600 -4.54700
H -1.26700 0.74000 -6.12900
H -2.20400 0.71400 -4.59600
H -1.96700 -0.72000 -5.45300
H 1.35600 -1.75900 -5.96700
H 1.45200 -3.15700 -4.90200
H 2.71400 -0.52200 -4.79800
H 3.48700 -2.12100 -4.52900
H 2.49500 -1.30300 -3.24000
H 0.86700 -6.33300 -0.08400
H 0.40400 -5.64200 -1.68000
H -0.89100 -5.99900 -0.46300
H -1.28300 -3.58100 4.02800
H 0.69800 -4.47800 7.75500
H 0.83300 -2.61900 7.68000
H 2.00000 -3.75400 6.97600
Mg 10.51591 0.95276 0.80512
C 10.91684 -1.18645 3.65856
C 8.73402 3.05301 2.81719
C 9.76310 2.63053 -1.78057
C 11.31044 -1.79191 -1.19017
N 9.96494 0.83905 2.94422
C 10.22549 0.00952 3.94339
C 9.78677 0.52660 5.33971
C 8.63916 1.54645 4.86878
C 9.15611 1.86604 3.46761
C 7.27249 0.89521 4.73665
C 10.94451 1.27221 6.09185
C 10.68397 1.53164 7.57730
H 11.81091 1.46510 8.50361
N 9.84439 2.81217 0.63121
C 9.16020 3.51993 1.55438
C 8.87981 4.82434 0.93468
C 9.31045 4.76966 -0.48880
C 9.64418 3.36461 -0.60945
C 8.33406 5.99102 1.70569
C 9.39431 5.80723 -1.56704
O 9.57042 5.48852 -2.79596
C 9.17097 7.20066 -1.15479
N 10.32522 0.44180 -1.20109
C 10.03966 1.37341 -2.12764
C 10.22472 0.82876 -3.52389
C 10.92978 -0.59482 -3.33979
C 10.95029 -0.66946 -1.79726
C 8.94786 0.66131 -4.34728
C 12.25934 -0.82638 -4.10876
C 13.34244 0.06650 -3.54745
N 11.20317 -1.06777 1.14151
C 11.44847 -2.05884 0.16596
C 11.78807 -3.30351 0.88562
C 11.69356 -2.95341 2.24098
C 11.30168 -1.59243 2.35785
C 12.08001 -4.55962 0.28306
C 11.82587 -3.42859 3.59943
O 12.21663 -4.47243 4.12042
C 11.20589 -2.34036 4.57810
C 12.18209 -2.11472 5.69999
O 13.29612 -1.60919 5.47637
O 11.56122 -2.32944 6.87420
C 12.48572 -2.10731 8.01778
H 7.97206 3.66600 3.29942
H 9.62148 3.19325 -2.70619
H 11.66602 -2.66533 -1.74097
H 9.36736 -0.22925 5.99283
H 8.62924 2.44177 5.48495
H 7.32209 -0.17555 4.86761
H 6.92552 1.13893 3.74104
H 6.56370 1.36319 5.42581
H 11.00061 2.30609 5.72757
H 11.87395 0.74987 5.97383
H 9.83952 0.94340 7.95655
H 10.36316 2.56928 7.69730
H 7.96077 5.68330 2.69025
H 7.44174 6.33712 1.17291
H 9.04465 6.81708 1.77879
H 8.18663 7.28978 -0.70139
H 9.35987 7.80283 -2.04563
H 9.89977 7.45668 -0.37767
H 10.87478 1.47020 -4.10619
H 10.28541 -1.41642 -3.68562
H 8.97152 1.21247 -5.30631
H 8.10859 0.98245 -3.74475
H 8.68232 -0.36770 -4.58353
H 12.14236 -0.54950 -5.15938
H 12.59943 -1.85627 -4.08308
H 13.16877 1.01731 -4.06018
H 14.32733 -0.33331 -3.78020
H 13.19424 0.23843 -2.47501
H 12.93341 -4.96643 0.80910
H 12.28161 -4.45297 -0.78078
H 11.14243 -5.08922 0.47210
H 10.25196 -2.72838 4.93731
H 12.48123 -3.02435 8.61503
H 12.13287 -1.18262 8.51193
H 13.54152 -2.00448 7.79607

