%nproc=24
%mem=175gb
#p cam-b3lyp/Def2SVP td=(nstates=5)

TDDFT excited states in gaussian

0 1
Mg 8.94052 0.81103 0.68395
C 8.58980 -0.42599 4.03445
C 7.70411 3.78339 1.81132
C 8.81268 1.78823 -2.33203
C 9.05087 -2.50558 -0.38079
N 8.27008 1.47084 2.68580
C 8.24049 0.93352 3.89607
C 7.88964 1.92969 5.03366
C 7.09280 3.01840 4.16267
C 7.74921 2.77360 2.80551
C 5.60839 2.71854 4.03631
C 9.16751 2.55056 5.69970
C 8.91223 3.29073 7.01452
H 9.92808 3.22073 8.06124
N 8.81644 2.64337 -0.06818
C 8.30679 3.73777 0.53499
C 8.42846 4.82971 -0.44329
C 8.90017 4.25439 -1.73217
C 8.84016 2.83905 -1.42673
C 8.18582 6.26862 -0.09101
C 9.32173 4.87484 -3.02968
O 9.46642 4.17623 -4.09450
C 9.46949 6.33756 -3.03947
N 8.72023 -0.20186 -1.11823
C 8.75016 0.45721 -2.28984
C 8.84989 -0.50127 -3.45249
C 9.12557 -1.93668 -2.80352
C 9.04525 -1.55805 -1.30833
C 7.62043 -0.57975 -4.35728
C 10.37788 -2.70687 -3.30472
C 11.63443 -1.98749 -2.87003
N 9.02701 -1.12628 1.63653
C 9.04007 -2.38837 1.00324
C 8.98652 -3.41056 2.06846
C 8.92230 -2.66618 3.25601
C 8.91454 -1.27815 2.95135
C 8.95221 -4.81944 1.86846
C 8.84858 -2.73908 4.69752
O 8.90965 -3.64693 5.52565
C 8.50240 -1.29318 5.25959
C 9.44386 -0.99859 6.39510
O 10.66396 -0.87477 6.18864
O 8.72823 -0.69775 7.49407
C 9.61797 -0.38718 8.64461
H 7.11644 4.68028 2.00907
H 8.87925 2.07126 -3.38509
H 9.18028 -3.56186 -0.62611
H 7.24537 1.52802 5.80655
H 7.29789 4.02808 4.50885
H 5.35463 1.75628 4.45559
H 5.39364 2.73769 2.97585
H 5.02120 3.52909 4.47740
H 9.52460 3.38401 5.08117
H 9.92214 1.80254 5.84674
H 7.92015 3.06916 7.42637
H 8.88358 4.36354 6.80890
H 7.69206 6.36638 0.88369
H 7.45187 6.65377 -0.80714
H 9.09154 6.87575 -0.15217
H 8.52566 6.79778 -2.75691
H 9.86242 6.58498 -4.02754
H 10.19956 6.62058 -2.27297
H 9.68046 -0.24181 -4.09742
H 8.29871 -2.63620 -2.99540
H 7.84421 -0.35831 -5.41793
H 6.87204 0.10230 -3.97614
H 7.09454 -1.53282 -4.34019
H 10.39589 -2.73048 -4.39709
H 10.41966 -3.73458 -2.95966
H 11.75574 -1.21710 -3.63741
H 12.48193 -2.66987 -2.85835
H 11.48421 -1.47723 -1.91153
H 9.63245 -5.25291 2.58949
H 9.22991 -5.08333 0.85012
H 7.89666 -5.01953 2.07104
H 7.46134 -1.30859 5.58443
H 9.33055 -1.05726 9.46074
H 9.50820 0.69914 8.82242
H 10.67127 -0.62002 8.54077

