%nproc=24
%mem=175gb
#p cam-b3lyp/Def2SVP td=(nstates=5)

TDDFT excited states in gaussian

0 1
Mg 0.00000 0.00000 0.00000
C -0.21700 -2.21800 2.80100
C -1.25500 2.44200 2.02600
C -0.24500 1.85000 -2.56400
C 0.14600 -2.82400 -2.03700
N -0.61700 -0.00900 2.12600
C -0.59400 -0.90800 3.10500
C -0.93600 -0.30900 4.50200
C -1.77300 0.96400 4.03200
C -1.15500 1.16800 2.66000
C -3.26300 0.68500 3.86300
C 0.34500 0.11000 5.29900
C 0.12400 0.39700 6.78700
H 1.16800 0.03300 7.73300
N -0.18500 1.96100 -0.15200
C -0.70300 2.80000 0.77700
C -0.62000 4.15600 0.19300
C -0.18700 4.01500 -1.22500
C -0.21400 2.58300 -1.38000
C -0.88700 5.40600 0.97400
C 0.18100 5.01300 -2.27700
O 0.30300 4.69000 -3.50800
C 0.31000 6.41400 -1.83700
N -0.26500 -0.41300 -2.02900
C -0.27900 0.56900 -2.93700
C -0.19600 0.02400 -4.33200
C 0.12400 -1.53300 -4.18000
C 0.08600 -1.63200 -2.63500
C -1.45100 0.20500 -5.19700
C 1.37300 -2.07000 -4.92300
C 2.62600 -1.49000 -4.30600
N 0.15000 -2.14400 0.30300
C 0.17300 -3.13600 -0.68800
C 0.17300 -4.43800 0.00400
C 0.13300 -4.11100 1.35800
C 0.08300 -2.69500 1.50200
C 0.14900 -5.71500 -0.62300
C 0.09600 -4.62900 2.71600
O 0.20800 -5.74700 3.22100
C -0.25500 -3.42800 3.70100
C 0.71700 -3.48200 4.84800
O 1.93100 -3.25500 4.66900
O 0.03800 -3.55600 6.00300
C 0.94300 -3.58300 7.18300
H -1.85900 3.22000 2.49700
H -0.21800 2.45300 -3.47400
H 0.27600 -3.74700 -2.60500
H -1.55400 -0.94900 5.13200
H -1.58500 1.83100 4.66500
H -3.48400 -0.37700 3.96900
H -3.51100 1.02700 2.85800
H -3.85200 1.30100 4.54300
H 0.66900 1.09600 4.96600
H 1.13000 -0.63900 5.18900
H -0.84400 0.02600 7.12500
H 0.06200 1.47700 6.92100
H -1.34400 5.18600 1.93800
H -1.65100 5.96300 0.43200
H 0.00700 6.02000 1.08400
H -0.63500 6.74400 -1.40500
H 0.66500 6.97000 -2.70400
H 1.04800 6.46600 -1.03600
H 0.60800 0.50100 -4.89100
H -0.69200 -2.15600 -4.54700
H -1.26700 0.74000 -6.12900
H -2.20400 0.71400 -4.59600
H -1.96700 -0.72000 -5.45300
H 1.35600 -1.75900 -5.96700
H 1.45200 -3.15700 -4.90200
H 2.71400 -0.52200 -4.79800
H 3.48700 -2.12100 -4.52900
H 2.49500 -1.30300 -3.24000
H 0.86700 -6.33300 -0.08400
H 0.40400 -5.64200 -1.68000
H -0.89100 -5.99900 -0.46300
H -1.28300 -3.58100 4.02800
H 0.69800 -4.47800 7.75500
H 0.83300 -2.61900 7.68000
H 2.00000 -3.75400 6.97600
Mg 7.89113 0.70279 0.59797
C 7.99619 0.23061 -2.95802
C 7.28818 -2.64306 0.87425
C 7.34632 1.15719 3.69056
C 7.36272 4.09392 -0.00758
N 7.69119 -0.89484 -0.91857
C 7.81168 -0.96670 -2.23563
C 7.81014 -2.41126 -2.80378
C 7.01991 -3.13842 -1.60978
C 7.37909 -2.19143 -0.46659
C 5.51089 -3.12081 -1.78835
C 9.25918 -2.98985 -2.96967
C 9.34900 -4.26980 -3.80360
H 10.52029 -4.46615 -4.65331
N 7.87698 -0.59060 2.10313
C 7.63629 -1.91672 2.03424
C 7.72169 -2.41345 3.41632
C 7.86939 -1.24522 4.32635
C 7.67822 -0.15584 3.38998
C 7.74120 -3.87558 3.75574
C 8.12588 -1.12812 5.79832
O 7.97949 -0.01743 6.42105
C 8.46281 -2.37192 6.50607
N 7.21278 2.34040 1.68444
C 7.11589 2.28885 3.02454
C 6.87325 3.66076 3.60708
C 7.06911 4.68364 2.39343
C 7.31414 3.67519 1.24959
C 5.50001 3.88085 4.24123
C 8.09503 5.83161 2.59914
C 9.49421 5.26497 2.68033
N 7.89127 1.99162 -1.13609
C 7.62036 3.37712 -1.16913
C 7.62649 3.78822 -2.58807
C 7.87976 2.59954 -3.28906
C 8.00142 1.51996 -2.37297
C 7.36897 5.10073 -3.07501
C 8.06129 2.01069 -4.59634
O 8.15103 2.44995 -5.74209
C 8.01916 0.42870 -4.44828
C 9.18272 -0.14053 -5.21288
O 10.35010 0.08943 -4.85098
O 8.72620 -1.03427 -6.10909
C 9.84425 -1.63457 -6.88460
H 6.87121 -3.63307 1.06111
H 7.25669 1.38918 4.75434
H 7.30336 5.15153 -0.27331
H 7.27009 -2.53251 -3.73513
H 7.41731 -4.13226 -1.42078
H 5.21207 -2.51685 -2.63220
H 5.11072 -2.71190 -0.86982
H 5.12730 -4.14291 -1.85552
H 9.60515 -3.37223 -2.00074
H 9.92154 -2.24866 -3.37285
H 8.42822 -4.45907 -4.36865
H 9.42641 -5.12200 -3.12405
H 7.45109 -4.49203 2.89595
H 6.94681 -4.04380 4.49094
H 8.69318 -4.19578 4.18454
H 7.65621 -3.08995 6.37835
H 8.69821 -2.07155 7.52893
H 9.35156 -2.81058 6.03883
H 7.59921 3.88736 4.37828
H 6.13547 5.21244 2.15153
H 5.55393 4.20181 5.29866
H 4.93133 2.96494 4.15038
H 4.86393 4.59964 3.72748
H 7.91009 6.33909 3.54910
H 8.06186 6.58537 1.81956
H 9.57492 4.95584 3.72676
H 10.23107 6.02746 2.43606
H 9.59073 4.36476 2.06229
H 8.10549 5.29814 -3.84252
H 7.41852 5.83793 -2.27635
H 6.35103 4.97243 -3.45263
H 7.06224 0.08787 -4.84540
H 9.62398 -1.46824 -7.94361
H 9.91442 -2.68458 -6.54356
H 10.82038 -1.17213 -6.79644

