%nproc=24
%mem=175gb
#p cam-b3lyp/Def2SVP td=(nstates=5)

TDDFT excited states in gaussian

0 1
Mg 15.77265 1.42346 1.20510
C 15.60496 -1.13677 3.71431
C 14.51864 3.57837 3.53285
C 15.48388 3.58670 -1.09804
C 15.91315 -1.11545 -1.17815
N 15.17888 1.13906 3.31669
C 15.21743 0.13646 4.18136
C 14.89532 0.53747 5.64594
C 14.03381 1.85984 5.34926
C 14.63316 2.24397 3.99800
C 12.55274 1.58179 5.15315
C 16.18715 0.86715 6.47330
C 15.97468 0.96520 7.98558
H 17.03868 0.49754 8.86970
N 15.57074 3.39481 1.31275
C 15.06328 4.10585 2.34144
C 15.11409 5.51456 1.92060
C 15.53996 5.56331 0.49548
C 15.52769 4.15163 0.16825
C 14.85362 6.65481 2.86156
C 15.88689 6.69430 -0.42469
O 15.99936 6.52272 -1.68990
C 15.99920 8.02641 0.18717
N 15.49440 1.26714 -0.84928
C 15.45506 2.36330 -1.62698
C 15.52434 1.99673 -3.09027
C 15.86348 0.43427 -3.12616
C 15.84259 0.13591 -1.61093
C 14.25703 2.26096 -3.90298
C 17.10955 0.00325 -3.94726
C 18.36717 0.51967 -3.28614
N 15.94868 -0.72972 1.23484
C 15.96281 -1.59983 0.12273
C 15.98236 -2.97976 0.64982
C 15.95477 -2.81582 2.04296
C 15.90006 -1.43194 2.36133
C 15.97249 -4.16914 -0.13210
C 15.94876 -3.49909 3.31647
O 16.06921 -4.66995 3.67466
C 15.59431 -2.44618 4.45319
C 16.57940 -2.62526 5.57571
O 17.78550 -2.37530 5.40409
O 15.90778 -2.85114 6.71951
C 16.84153 -3.02429 7.86405
H 13.91944 4.28050 4.11324
H 15.49550 4.29401 -1.93054
H 16.05631 -1.96015 -1.85539
H 14.29679 -0.18136 6.19258
H 14.23042 2.63317 6.08727
H 12.34138 0.52308 5.12851
H 12.28936 2.04223 4.20993
H 11.96720 2.10219 5.91647
H 16.49566 1.89861 6.25964
H 16.96530 0.15946 6.26285
H 15.00801 0.54872 8.29387
H 15.91113 2.02115 8.25933
H 14.40273 6.30748 3.79936
H 14.07874 7.27795 2.40207
H 15.74088 7.26672 3.03763
H 15.05858 8.28314 0.66861
H 16.34056 8.68722 -0.61200
H 16.75658 7.98546 0.97793
H 16.31815 2.54015 -3.58791
H 15.04560 -0.15004 -3.57281
H 14.42677 2.92228 -4.77356
H 13.51081 2.68416 -3.24374
H 13.75530 1.37079 -4.27859
H 17.07818 0.44821 -4.94485
H 17.19151 -1.07083 -4.07615
H 18.43492 1.54790 -3.65389
H 19.23033 -0.06719 -3.59371
H 18.24881 0.56613 -2.19734
H 16.69509 -4.84025 0.31283
H 16.20956 -3.96222 -1.17361
H 14.93236 -4.47963 -0.00173
H 14.56985 -2.64128 4.77253
H 16.60775 -3.98947 8.32390
H 16.71417 -2.12287 8.49251
H 17.89423 -3.14723 7.63788

