%nproc=24
%mem=175gb
#p cam-b3lyp/Def2SVP td=(nstates=5)

TDDFT excited states in gaussian

0 1
Mg 0.00000 0.00000 0.00000
C -0.21700 -2.21800 2.80100
C -1.25500 2.44200 2.02600
C -0.24500 1.85000 -2.56400
C 0.14600 -2.82400 -2.03700
N -0.61700 -0.00900 2.12600
C -0.59400 -0.90800 3.10500
C -0.93600 -0.30900 4.50200
C -1.77300 0.96400 4.03200
C -1.15500 1.16800 2.66000
C -3.26300 0.68500 3.86300
C 0.34500 0.11000 5.29900
C 0.12400 0.39700 6.78700
H 1.16800 0.03300 7.73300
N -0.18500 1.96100 -0.15200
C -0.70300 2.80000 0.77700
C -0.62000 4.15600 0.19300
C -0.18700 4.01500 -1.22500
C -0.21400 2.58300 -1.38000
C -0.88700 5.40600 0.97400
C 0.18100 5.01300 -2.27700
O 0.30300 4.69000 -3.50800
C 0.31000 6.41400 -1.83700
N -0.26500 -0.41300 -2.02900
C -0.27900 0.56900 -2.93700
C -0.19600 0.02400 -4.33200
C 0.12400 -1.53300 -4.18000
C 0.08600 -1.63200 -2.63500
C -1.45100 0.20500 -5.19700
C 1.37300 -2.07000 -4.92300
C 2.62600 -1.49000 -4.30600
N 0.15000 -2.14400 0.30300
C 0.17300 -3.13600 -0.68800
C 0.17300 -4.43800 0.00400
C 0.13300 -4.11100 1.35800
C 0.08300 -2.69500 1.50200
C 0.14900 -5.71500 -0.62300
C 0.09600 -4.62900 2.71600
O 0.20800 -5.74700 3.22100
C -0.25500 -3.42800 3.70100
C 0.71700 -3.48200 4.84800
O 1.93100 -3.25500 4.66900
O 0.03800 -3.55600 6.00300
C 0.94300 -3.58300 7.18300
H -1.85900 3.22000 2.49700
H -0.21800 2.45300 -3.47400
H 0.27600 -3.74700 -2.60500
H -1.55400 -0.94900 5.13200
H -1.58500 1.83100 4.66500
H -3.48400 -0.37700 3.96900
H -3.51100 1.02700 2.85800
H -3.85200 1.30100 4.54300
H 0.66900 1.09600 4.96600
H 1.13000 -0.63900 5.18900
H -0.84400 0.02600 7.12500
H 0.06200 1.47700 6.92100
H -1.34400 5.18600 1.93800
H -1.65100 5.96300 0.43200
H 0.00700 6.02000 1.08400
H -0.63500 6.74400 -1.40500
H 0.66500 6.97000 -2.70400
H 1.04800 6.46600 -1.03600
H 0.60800 0.50100 -4.89100
H -0.69200 -2.15600 -4.54700
H -1.26700 0.74000 -6.12900
H -2.20400 0.71400 -4.59600
H -1.96700 -0.72000 -5.45300
H 1.35600 -1.75900 -5.96700
H 1.45200 -3.15700 -4.90200
H 2.71400 -0.52200 -4.79800
H 3.48700 -2.12100 -4.52900
H 2.49500 -1.30300 -3.24000
H 0.86700 -6.33300 -0.08400
H 0.40400 -5.64200 -1.68000
H -0.89100 -5.99900 -0.46300
H -1.28300 -3.58100 4.02800
H 0.69800 -4.47800 7.75500
H 0.83300 -2.61900 7.68000
H 2.00000 -3.75400 6.97600
Mg 10.51827 0.95034 0.79206
C 9.95888 4.46434 1.25891
C 9.84283 1.43429 -2.51614
C 10.56093 -2.20091 0.42436
C 10.02415 0.55765 4.21950
N 9.98371 2.76157 -0.35943
C 9.86078 4.05178 -0.08631
C 9.69898 4.96080 -1.33414
C 9.10974 3.86815 -2.35285
C 9.70733 2.60738 -1.73153
C 7.59524 3.75362 -2.30269
C 11.06988 5.53482 -1.83728
C 10.95628 6.67070 -2.85642
H 11.94560 7.74403 -2.81554
N 10.72550 -0.14864 -0.84741
C 10.42381 0.21210 -2.11237
C 10.73822 -0.95591 -2.94967
C 11.09457 -2.09136 -2.05610
C 10.78047 -1.51771 -0.76290
C 10.76075 -0.89948 -4.44958
C 11.61780 -3.47032 -2.32239
O 11.63084 -4.37292 -1.41246
C 12.02760 -3.76051 -3.70418
N 10.11349 -0.62579 2.08602
C 10.25888 -1.90184 1.68794
C 10.18044 -2.85111 2.85975
C 10.19381 -1.92569 4.16397
C 10.18740 -0.53666 3.48874
C 8.95457 -3.76342 2.89592
C 11.28482 -2.22515 5.22825
C 12.65193 -1.89783 4.67214
N 10.25565 2.26505 2.48635
C 10.03853 1.89105 3.83063
C 9.80397 3.13292 4.59559
C 9.87867 4.14955 3.63155
C 10.12119 3.57976 2.35248
C 9.51491 3.21072 5.98718
C 9.79695 5.57431 3.40338
O 9.69514 6.56528 4.12543
C 9.71949 5.83159 1.83679
C 10.70182 6.91833 1.49542
O 11.92362 6.73222 1.63384
O 10.05541 7.91312 0.86065
C 10.98981 9.00975 0.49170
H 9.42757 1.43360 -3.52433
H 10.67468 -3.28617 0.37182
H 9.95974 0.52763 5.30928
H 8.99484 5.77544 -1.21447
H 9.49498 4.01721 -3.35820
H 7.17282 4.34401 -1.50323
H 7.38458 2.70330 -2.14941
H 7.16552 4.00833 -3.27573
H 11.57010 4.77770 -2.45477
H 11.67721 5.84996 -1.01117
H 9.94162 7.08477 -2.90074
H 11.12152 6.25882 -3.85495
H 10.29549 0.02049 -4.82454
H 10.10656 -1.70093 -4.80958
H 11.76114 -1.04792 -4.86170
H 11.18333 -3.60463 -4.37154
H 12.45606 -4.76428 -3.67723
H 12.79891 -3.04022 -3.99893
H 11.04246 -3.50639 2.88497
H 9.25356 -2.00465 4.72925
H 9.21178 -4.83888 2.93221
H 8.34290 -3.54774 2.02997
H 8.26506 -3.57808 3.71776
H 11.29525 -3.29070 5.47045
H 11.14103 -1.68495 6.15804
H 12.90843 -2.79636 4.10300
H 13.36210 -1.72511 5.47829
H 12.59909 -1.06287 3.96383
H 10.10753 4.02462 6.38323
H 9.73750 2.27324 6.49250
H 8.44113 3.41336 5.95230
H 8.69370 6.11851 1.60225
H 10.58822 9.93099 0.92498
H 11.07878 8.96838 -0.61017
H 11.98336 8.98832 0.92397

