%nproc=24
%mem=175gb
#p cam-b3lyp/Def2SVP td=(nstates=5)

TDDFT excited states in gaussian

0 1
Mg 13.13653 1.19142 1.00393
C 15.23009 0.57465 3.85273
C 10.48139 1.20291 3.14512
C 11.22385 1.28473 -1.52596
C 15.73958 0.01113 -0.99026
N 13.00073 0.91409 3.19411
C 13.86915 0.74780 4.18028
C 13.25469 0.84846 5.60221
C 11.73770 0.46963 5.23598
C 11.71879 0.91996 3.77670
C 11.46350 -1.02447 5.27836
C 13.35753 2.29694 6.19663
C 13.05987 2.40016 7.69413
H 13.81123 3.36851 8.48800
N 11.22893 1.71813 0.85488
C 10.29606 1.68128 1.82939
C 9.04733 2.15014 1.20889
C 9.28076 2.31004 -0.25216
C 10.60997 1.74493 -0.37014
C 7.81622 2.47611 2.00358
C 8.44092 2.86631 -1.36186
O 8.74864 2.68840 -2.59332
C 7.19819 3.54512 -0.96648
N 13.35251 0.52175 -0.95240
C 12.38986 0.73541 -1.86651
C 12.87880 0.41459 -3.25877
C 14.45282 0.17048 -3.11574
C 14.59253 0.31092 -1.58403
C 12.23435 -0.79983 -3.92679
C 15.38235 1.02136 -4.02384
C 15.31389 2.47505 -3.61462
N 15.19111 0.60093 1.31710
C 16.09568 0.11357 0.34843
C 17.33480 -0.26191 1.05978
C 17.05471 0.01371 2.40666
C 15.72717 0.50590 2.52874
C 18.49783 -0.82601 0.46373
C 17.57652 -0.00980 3.75420
O 18.67389 -0.24843 4.25675
C 16.37482 0.23321 4.76576
C 16.80978 1.27216 5.76272
O 17.03941 2.43929 5.39984
O 16.67314 0.77481 7.00543
C 17.08175 1.77247 8.02990
H 9.56084 1.00026 3.69322
H 10.64444 1.39888 -2.44506
H 16.63149 -0.27269 -1.55295
H 13.65182 0.14059 6.31983
H 11.03240 1.05141 5.82373
H 12.36681 -1.59564 5.43306
H 11.02010 -1.26942 4.32209
H 10.70060 -1.24655 6.03003
H 12.53560 2.90625 5.79926
H 14.31805 2.72681 5.98866
H 13.06129 1.41850 8.18329
H 12.03623 2.76105 7.82039
H 7.89111 2.10305 3.03247
H 6.99198 1.90251 1.56599
H 7.56352 3.53810 1.97213
H 6.57175 2.85451 -0.40694
H 6.78099 3.95197 -1.88968
H 7.44924 4.36533 -0.28469
H 12.71205 1.24889 -3.92903
H 14.72863 -0.86525 -3.36280
H 11.75922 -0.56310 -4.89750
H 11.51075 -1.22203 -3.24218
H 12.90407 -1.64001 -4.10217
H 15.04376 0.97483 -5.06180
H 16.41729 0.69632 -4.00784
H 14.41892 2.83489 -4.13099
H 16.20232 3.00864 -3.94630
H 15.13471 2.57270 -2.53758
H 19.34833 -0.31989 0.90076
H 18.48250 -0.71708 -0.61870
H 18.38910 -1.86901 0.77291
H 16.14910 -0.72179 5.24179
H 17.84912 1.29821 8.64949
H 16.14736 2.08226 8.53458
H 17.60422 2.65781 7.68692

