%nproc=24
%mem=175gb
#p cam-b3lyp/Def2SVP td=(nstates=5)

TDDFT excited states in gaussian

0 1
Mg 0.00000 0.00000 0.00000
C -0.21700 -2.21800 2.80100
C -1.25500 2.44200 2.02600
C -0.24500 1.85000 -2.56400
C 0.14600 -2.82400 -2.03700
N -0.61700 -0.00900 2.12600
C -0.59400 -0.90800 3.10500
C -0.93600 -0.30900 4.50200
C -1.77300 0.96400 4.03200
C -1.15500 1.16800 2.66000
C -3.26300 0.68500 3.86300
C 0.34500 0.11000 5.29900
C 0.12400 0.39700 6.78700
H 1.16800 0.03300 7.73300
N -0.18500 1.96100 -0.15200
C -0.70300 2.80000 0.77700
C -0.62000 4.15600 0.19300
C -0.18700 4.01500 -1.22500
C -0.21400 2.58300 -1.38000
C -0.88700 5.40600 0.97400
C 0.18100 5.01300 -2.27700
O 0.30300 4.69000 -3.50800
C 0.31000 6.41400 -1.83700
N -0.26500 -0.41300 -2.02900
C -0.27900 0.56900 -2.93700
C -0.19600 0.02400 -4.33200
C 0.12400 -1.53300 -4.18000
C 0.08600 -1.63200 -2.63500
C -1.45100 0.20500 -5.19700
C 1.37300 -2.07000 -4.92300
C 2.62600 -1.49000 -4.30600
N 0.15000 -2.14400 0.30300
C 0.17300 -3.13600 -0.68800
C 0.17300 -4.43800 0.00400
C 0.13300 -4.11100 1.35800
C 0.08300 -2.69500 1.50200
C 0.14900 -5.71500 -0.62300
C 0.09600 -4.62900 2.71600
O 0.20800 -5.74700 3.22100
C -0.25500 -3.42800 3.70100
C 0.71700 -3.48200 4.84800
O 1.93100 -3.25500 4.66900
O 0.03800 -3.55600 6.00300
C 0.94300 -3.58300 7.18300
H -1.85900 3.22000 2.49700
H -0.21800 2.45300 -3.47400
H 0.27600 -3.74700 -2.60500
H -1.55400 -0.94900 5.13200
H -1.58500 1.83100 4.66500
H -3.48400 -0.37700 3.96900
H -3.51100 1.02700 2.85800
H -3.85200 1.30100 4.54300
H 0.66900 1.09600 4.96600
H 1.13000 -0.63900 5.18900
H -0.84400 0.02600 7.12500
H 0.06200 1.47700 6.92100
H -1.34400 5.18600 1.93800
H -1.65100 5.96300 0.43200
H 0.00700 6.02000 1.08400
H -0.63500 6.74400 -1.40500
H 0.66500 6.97000 -2.70400
H 1.04800 6.46600 -1.03600
H 0.60800 0.50100 -4.89100
H -0.69200 -2.15600 -4.54700
H -1.26700 0.74000 -6.12900
H -2.20400 0.71400 -4.59600
H -1.96700 -0.72000 -5.45300
H 1.35600 -1.75900 -5.96700
H 1.45200 -3.15700 -4.90200
H 2.71400 -0.52200 -4.79800
H 3.48700 -2.12100 -4.52900
H 2.49500 -1.30300 -3.24000
H 0.86700 -6.33300 -0.08400
H 0.40400 -5.64200 -1.68000
H -0.89100 -5.99900 -0.46300
H -1.28300 -3.58100 4.02800
H 0.69800 -4.47800 7.75500
H 0.83300 -2.61900 7.68000
H 2.00000 -3.75400 6.97600
Mg 31.54019 2.84103 2.38832
C 31.04826 6.36885 1.95067
C 30.94193 2.49462 -0.95184
C 31.52153 -0.30251 2.81871
C 30.96899 3.32441 5.79211
N 31.06843 4.31583 0.80886
C 30.96819 5.63517 0.74869
C 30.85130 6.20639 -0.68992
C 30.25893 4.90366 -1.41852
C 30.81632 3.82846 -0.48796
C 28.74160 4.82968 -1.37906
C 32.24419 6.61448 -1.28601
C 32.17584 7.46165 -2.55856
H 33.18730 8.49513 -2.76187
N 31.75625 1.36438 1.08012
C 31.48792 1.40272 -0.24192
C 31.79354 0.05777 -0.75365
C 32.10707 -0.82425 0.40327
C 31.77967 0.05905 1.50449
C 31.84736 -0.26240 -2.21926
C 32.60535 -2.23426 0.50211
O 32.58047 -2.88122 1.60830
C 33.03636 -2.86678 -0.75314
N 31.07529 1.64456 4.02376
C 31.20079 0.30736 3.95999
C 31.07820 -0.31793 5.32906
C 31.08557 0.90343 6.36143
C 31.12298 2.07984 5.36140
C 29.83226 -1.17247 5.56097
C 32.14823 0.86161 7.49354
C 33.53303 1.01769 6.90757
N 31.27236 4.54113 3.69445
C 31.02022 4.51810 5.08369
C 30.79749 5.91523 5.50896
C 30.91365 6.65767 4.32415
C 31.16930 5.78278 3.23387
C 30.48234 6.34261 6.82963
C 30.86759 7.98149 3.74616
O 30.77294 9.12284 4.19571
C 30.82719 7.84075 2.16345
C 31.83961 8.79190 1.58655
O 33.05405 8.62659 1.79732
O 31.22790 9.60701 0.70804
C 32.19319 10.56162 0.10079
H 30.54706 2.24895 -1.93805
H 31.61263 -1.36820 3.04113
H 30.88211 3.56843 6.85304
H 30.16281 7.03633 -0.79459
H 30.66741 4.79080 -2.41940
H 28.31619 5.60767 -0.76271
H 28.50506 3.85441 -0.97416
H 28.33712 4.84029 -2.39524
H 32.74007 5.71923 -1.68270
H 32.84156 7.11605 -0.54966
H 31.17154 7.86783 -2.72988
H 32.35205 6.81093 -3.41852
H 31.40988 0.54221 -2.82310
H 31.18322 -1.11770 -2.38432
H 32.85235 -0.52511 -2.55639
H 32.20923 -2.86886 -1.45906
H 33.44222 -3.83881 -0.46625
H 33.82894 -2.25539 -1.19883
H 31.92505 -0.95997 5.53821
H 30.13268 0.98324 6.90500
H 30.06519 -2.20881 5.87050
H 29.24292 -1.16998 4.65366
H 29.13061 -0.77675 6.29329
H 32.13059 -0.10976 7.99382
H 31.99764 1.61906 8.25550
H 33.78125 0.00152 6.58685
H 34.23048 1.37473 7.66263
H 33.51262 1.65013 6.01244
H 31.08451 7.21996 7.02496
H 30.67428 5.55750 7.55801
H 29.41416 6.54739 6.71867
H 29.81280 8.07651 1.83939
H 31.80316 11.56820 0.28070
H 32.30331 10.24506 -0.95345
H 33.17716 10.63278 0.54931

