%nproc=24
%mem=175gb
#p cam-b3lyp/Def2SVP td=(nstates=5)

TDDFT excited states in gaussian

0 1
Mg 0.00000 0.00000 0.00000
C -0.21700 -2.21800 2.80100
C -1.25500 2.44200 2.02600
C -0.24500 1.85000 -2.56400
C 0.14600 -2.82400 -2.03700
N -0.61700 -0.00900 2.12600
C -0.59400 -0.90800 3.10500
C -0.93600 -0.30900 4.50200
C -1.77300 0.96400 4.03200
C -1.15500 1.16800 2.66000
C -3.26300 0.68500 3.86300
C 0.34500 0.11000 5.29900
C 0.12400 0.39700 6.78700
H 1.16800 0.03300 7.73300
N -0.18500 1.96100 -0.15200
C -0.70300 2.80000 0.77700
C -0.62000 4.15600 0.19300
C -0.18700 4.01500 -1.22500
C -0.21400 2.58300 -1.38000
C -0.88700 5.40600 0.97400
C 0.18100 5.01300 -2.27700
O 0.30300 4.69000 -3.50800
C 0.31000 6.41400 -1.83700
N -0.26500 -0.41300 -2.02900
C -0.27900 0.56900 -2.93700
C -0.19600 0.02400 -4.33200
C 0.12400 -1.53300 -4.18000
C 0.08600 -1.63200 -2.63500
C -1.45100 0.20500 -5.19700
C 1.37300 -2.07000 -4.92300
C 2.62600 -1.49000 -4.30600
N 0.15000 -2.14400 0.30300
C 0.17300 -3.13600 -0.68800
C 0.17300 -4.43800 0.00400
C 0.13300 -4.11100 1.35800
C 0.08300 -2.69500 1.50200
C 0.14900 -5.71500 -0.62300
C 0.09600 -4.62900 2.71600
O 0.20800 -5.74700 3.22100
C -0.25500 -3.42800 3.70100
C 0.71700 -3.48200 4.84800
O 1.93100 -3.25500 4.66900
O 0.03800 -3.55600 6.00300
C 0.94300 -3.58300 7.18300
H -1.85900 3.22000 2.49700
H -0.21800 2.45300 -3.47400
H 0.27600 -3.74700 -2.60500
H -1.55400 -0.94900 5.13200
H -1.58500 1.83100 4.66500
H -3.48400 -0.37700 3.96900
H -3.51100 1.02700 2.85800
H -3.85200 1.30100 4.54300
H 0.66900 1.09600 4.96600
H 1.13000 -0.63900 5.18900
H -0.84400 0.02600 7.12500
H 0.06200 1.47700 6.92100
H -1.34400 5.18600 1.93800
H -1.65100 5.96300 0.43200
H 0.00700 6.02000 1.08400
H -0.63500 6.74400 -1.40500
H 0.66500 6.97000 -2.70400
H 1.04800 6.46600 -1.03600
H 0.60800 0.50100 -4.89100
H -0.69200 -2.15600 -4.54700
H -1.26700 0.74000 -6.12900
H -2.20400 0.71400 -4.59600
H -1.96700 -0.72000 -5.45300
H 1.35600 -1.75900 -5.96700
H 1.45200 -3.15700 -4.90200
H 2.71400 -0.52200 -4.79800
H 3.48700 -2.12100 -4.52900
H 2.49500 -1.30300 -3.24000
H 0.86700 -6.33300 -0.08400
H 0.40400 -5.64200 -1.68000
H -0.89100 -5.99900 -0.46300
H -1.28300 -3.58100 4.02800
H 0.69800 -4.47800 7.75500
H 0.83300 -2.61900 7.68000
H 2.00000 -3.75400 6.97600
Mg 13.14592 1.17758 1.00359
C 13.35565 -1.87413 -0.87314
C 12.22882 -0.71286 3.69056
C 12.51638 3.87101 2.55812
C 12.95525 2.87122 -2.03630
N 12.86429 -1.00213 1.25224
C 13.03255 -2.06925 0.48590
C 12.92274 -3.42371 1.23620
C 12.02027 -2.94068 2.47357
C 12.41646 -1.46597 2.50409
C 10.52794 -3.02877 2.20058
C 14.31852 -3.95584 1.71646
C 14.32574 -5.41389 2.18101
H 15.50861 -6.22553 1.90800
N 12.95089 1.52253 2.94821
C 12.59314 0.63535 3.90016
C 12.57507 1.38725 5.16447
C 12.79080 2.82725 4.85697
C 12.73918 2.79821 3.40901
C 12.44674 0.72295 6.50449
C 12.99529 4.03313 5.72314
O 12.92513 5.22208 5.24954
C 13.18735 3.78380 7.15926
N 12.57529 3.07266 0.36688
C 12.41828 4.07881 1.24491
C 12.27790 5.40466 0.53583
C 12.61685 5.10909 -0.99888
C 12.81622 3.57937 -0.92394
C 10.90526 6.06984 0.63462
C 13.73388 5.96900 -1.65117
C 15.07083 5.63678 -1.02861
N 13.33614 0.65309 -1.08370
C 13.19456 1.51224 -2.19541
C 13.29741 0.67525 -3.40837
C 13.47004 -0.62639 -2.91398
C 13.45424 -0.60503 -1.49314
C 13.18141 1.13680 -4.74987
C 13.65139 -2.01505 -3.27099
O 13.82860 -2.62510 -4.32463
C 13.45877 -2.90166 -1.96592
C 14.59633 -3.88351 -1.89935
O 15.76372 -3.48802 -1.73375
O 14.09785 -5.13098 -1.82397
C 15.18776 -6.13978 -1.74484
H 11.71572 -1.18480 4.52894
H 12.40401 4.84291 3.04418
H 13.00391 3.33726 -3.02276
H 12.41319 -4.20684 0.68771
H 12.31698 -3.43436 3.39531
H 10.32101 -3.29102 1.17367
H 10.12883 -2.04911 2.42867
H 10.05571 -3.71834 2.90615
H 14.58739 -3.45771 2.65684
H 15.06206 -3.81513 0.95621
H 13.41589 -5.94705 1.87956
H 14.29655 -5.43025 3.27321
H 12.13765 -0.32498 6.40601
H 11.61034 1.20538 7.02175
H 13.34677 0.82719 7.11421
H 12.32457 3.25093 7.55183
H 13.40634 4.75901 7.59844
H 14.05103 3.12170 7.28696
H 12.98872 6.12590 0.92010
H 11.74633 5.28107 -1.64885
H 10.94412 7.08950 1.06224
H 10.25957 5.43399 1.22565
H 10.35949 6.14429 -0.30442
H 13.55660 7.02986 -1.45803
H 13.80226 5.84451 -2.72672
H 15.07924 6.24808 -0.12123
H 15.88382 5.91196 -1.69746
H 15.11040 4.58608 -0.71859
H 13.96426 0.64938 -5.31562
H 13.26474 2.22016 -4.80620
H 12.17265 0.78972 -4.98902
H 12.49211 -3.40004 -2.04819
H 15.02797 -6.84768 -2.56400
H 15.14741 -6.54305 -0.71552
H 16.19752 -5.80377 -1.94961

