%nproc=24
%mem=175gb
#p cam-b3lyp/Def2SVP td=(nstates=5)

TDDFT excited states in gaussian

0 1
Mg 0.00000 0.00000 0.00000
C -0.21700 -2.21800 2.80100
C -1.25500 2.44200 2.02600
C -0.24500 1.85000 -2.56400
C 0.14600 -2.82400 -2.03700
N -0.61700 -0.00900 2.12600
C -0.59400 -0.90800 3.10500
C -0.93600 -0.30900 4.50200
C -1.77300 0.96400 4.03200
C -1.15500 1.16800 2.66000
C -3.26300 0.68500 3.86300
C 0.34500 0.11000 5.29900
C 0.12400 0.39700 6.78700
H 1.16800 0.03300 7.73300
N -0.18500 1.96100 -0.15200
C -0.70300 2.80000 0.77700
C -0.62000 4.15600 0.19300
C -0.18700 4.01500 -1.22500
C -0.21400 2.58300 -1.38000
C -0.88700 5.40600 0.97400
C 0.18100 5.01300 -2.27700
O 0.30300 4.69000 -3.50800
C 0.31000 6.41400 -1.83700
N -0.26500 -0.41300 -2.02900
C -0.27900 0.56900 -2.93700
C -0.19600 0.02400 -4.33200
C 0.12400 -1.53300 -4.18000
C 0.08600 -1.63200 -2.63500
C -1.45100 0.20500 -5.19700
C 1.37300 -2.07000 -4.92300
C 2.62600 -1.49000 -4.30600
N 0.15000 -2.14400 0.30300
C 0.17300 -3.13600 -0.68800
C 0.17300 -4.43800 0.00400
C 0.13300 -4.11100 1.35800
C 0.08300 -2.69500 1.50200
C 0.14900 -5.71500 -0.62300
C 0.09600 -4.62900 2.71600
O 0.20800 -5.74700 3.22100
C -0.25500 -3.42800 3.70100
C 0.71700 -3.48200 4.84800
O 1.93100 -3.25500 4.66900
O 0.03800 -3.55600 6.00300
C 0.94300 -3.58300 7.18300
H -1.85900 3.22000 2.49700
H -0.21800 2.45300 -3.47400
H 0.27600 -3.74700 -2.60500
H -1.55400 -0.94900 5.13200
H -1.58500 1.83100 4.66500
H -3.48400 -0.37700 3.96900
H -3.51100 1.02700 2.85800
H -3.85200 1.30100 4.54300
H 0.66900 1.09600 4.96600
H 1.13000 -0.63900 5.18900
H -0.84400 0.02600 7.12500
H 0.06200 1.47700 6.92100
H -1.34400 5.18600 1.93800
H -1.65100 5.96300 0.43200
H 0.00700 6.02000 1.08400
H -0.63500 6.74400 -1.40500
H 0.66500 6.97000 -2.70400
H 1.04800 6.46600 -1.03600
H 0.60800 0.50100 -4.89100
H -0.69200 -2.15600 -4.54700
H -1.26700 0.74000 -6.12900
H -2.20400 0.71400 -4.59600
H -1.96700 -0.72000 -5.45300
H 1.35600 -1.75900 -5.96700
H 1.45200 -3.15700 -4.90200
H 2.71400 -0.52200 -4.79800
H 3.48700 -2.12100 -4.52900
H 2.49500 -1.30300 -3.24000
H 0.86700 -6.33300 -0.08400
H 0.40400 -5.64200 -1.68000
H -0.89100 -5.99900 -0.46300
H -1.28300 -3.58100 4.02800
H 0.69800 -4.47800 7.75500
H 0.83300 -2.61900 7.68000
H 2.00000 -3.75400 6.97600
Mg 7.87456 0.70921 0.60503
C 8.65233 3.23085 3.03721
C 7.75521 -1.52525 3.17943
C 7.63463 -1.60836 -1.54873
C 9.16048 2.85224 -1.82387
N 8.18120 0.94340 2.78296
C 8.41110 1.96022 3.60001
C 8.30136 1.61077 5.10845
C 8.59098 0.03418 5.01174
C 8.11560 -0.21439 3.58174
C 10.06849 -0.31225 5.09093
C 6.87089 1.89765 5.68593
C 6.77706 1.87298 7.21313
H 5.86455 2.80512 7.86956
N 7.24258 -1.16221 0.79723
C 7.24524 -1.91070 1.92019
C 6.69880 -3.22027 1.53210
C 6.52705 -3.23751 0.05396
C 7.16144 -1.98350 -0.29977
C 6.31997 -4.27290 2.53304
C 5.90727 -4.22585 -0.88692
O 6.08071 -4.14894 -2.15453
C 5.16877 -5.33987 -0.27450
N 8.52170 0.54132 -1.36356
C 8.24060 -0.55283 -2.09276
C 8.56384 -0.33401 -3.55153
C 8.89546 1.22442 -3.68902
C 8.78881 1.63775 -2.20471
C 9.72997 -1.15293 -4.10462
C 8.08104 2.02719 -4.74019
C 6.63292 2.11356 -4.31490
N 8.58097 2.75024 0.54813
C 9.10024 3.44234 -0.56787
C 9.55447 4.76364 -0.08799
C 9.28693 4.73960 1.28909
C 8.72551 3.48385 1.64603
C 10.17071 5.77068 -0.88313
C 9.36159 5.48703 2.52378
O 9.66794 6.64018 2.82400
C 9.07087 4.49659 3.73245
C 8.07413 5.15724 4.64490
O 6.91520 5.38532 4.25570
O 8.58433 5.21236 5.88870
C 7.62784 5.84961 6.83256
H 7.91683 -2.34561 3.87927
H 7.47361 -2.33230 -2.35089
H 9.48273 3.61444 -2.53653
H 9.04181 2.08678 5.74005
H 7.98181 -0.52339 5.71841
H 10.69041 0.57050 5.08042
H 10.27274 -0.92927 4.22570
H 10.26153 -0.94312 5.96332
H 6.21119 1.05458 5.44351
H 6.49035 2.82965 5.31552
H 7.76551 1.90458 7.68739
H 6.36331 0.90926 7.51985
H 6.71395 -4.04027 3.53007
H 6.84046 -5.19204 2.24298
H 5.24545 -4.46686 2.55409
H 5.83373 -5.89668 0.38143
H 4.72426 -5.88857 -1.10710
H 4.37508 -4.92749 0.35844
H 7.71047 -0.56814 -4.17607
H 9.94030 1.39383 -3.98810
H 9.45136 -1.77648 -4.97504
H 10.12380 -1.76820 -3.30657
H 10.60219 -0.57274 -4.40095
H 8.09150 1.51008 -5.70281
H 8.46203 3.02893 -4.90859
H 6.21631 1.16379 -4.66341
H 6.14282 2.95891 -4.79368
H 6.54396 2.13145 -3.22247
H 9.71901 6.71173 -0.59871
H 10.04277 5.57232 -1.94523
H 11.21136 5.65905 -0.56714
H 10.02013 4.30413 4.23388
H 8.15352 6.68557 7.30428
H 7.27637 5.03697 7.49576
H 6.76649 6.35312 6.40948

