%nproc=24
%mem=175gb
#p cam-b3lyp/Def2SVP td=(nstates=5)

TDDFT excited states in gaussian

0 1
Mg 0.00000 0.00000 0.00000
C -0.21700 -2.21800 2.80100
C -1.25500 2.44200 2.02600
C -0.24500 1.85000 -2.56400
C 0.14600 -2.82400 -2.03700
N -0.61700 -0.00900 2.12600
C -0.59400 -0.90800 3.10500
C -0.93600 -0.30900 4.50200
C -1.77300 0.96400 4.03200
C -1.15500 1.16800 2.66000
C -3.26300 0.68500 3.86300
C 0.34500 0.11000 5.29900
C 0.12400 0.39700 6.78700
H 1.16800 0.03300 7.73300
N -0.18500 1.96100 -0.15200
C -0.70300 2.80000 0.77700
C -0.62000 4.15600 0.19300
C -0.18700 4.01500 -1.22500
C -0.21400 2.58300 -1.38000
C -0.88700 5.40600 0.97400
C 0.18100 5.01300 -2.27700
O 0.30300 4.69000 -3.50800
C 0.31000 6.41400 -1.83700
N -0.26500 -0.41300 -2.02900
C -0.27900 0.56900 -2.93700
C -0.19600 0.02400 -4.33200
C 0.12400 -1.53300 -4.18000
C 0.08600 -1.63200 -2.63500
C -1.45100 0.20500 -5.19700
C 1.37300 -2.07000 -4.92300
C 2.62600 -1.49000 -4.30600
N 0.15000 -2.14400 0.30300
C 0.17300 -3.13600 -0.68800
C 0.17300 -4.43800 0.00400
C 0.13300 -4.11100 1.35800
C 0.08300 -2.69500 1.50200
C 0.14900 -5.71500 -0.62300
C 0.09600 -4.62900 2.71600
O 0.20800 -5.74700 3.22100
C -0.25500 -3.42800 3.70100
C 0.71700 -3.48200 4.84800
O 1.93100 -3.25500 4.66900
O 0.03800 -3.55600 6.00300
C 0.94300 -3.58300 7.18300
H -1.85900 3.22000 2.49700
H -0.21800 2.45300 -3.47400
H 0.27600 -3.74700 -2.60500
H -1.55400 -0.94900 5.13200
H -1.58500 1.83100 4.66500
H -3.48400 -0.37700 3.96900
H -3.51100 1.02700 2.85800
H -3.85200 1.30100 4.54300
H 0.66900 1.09600 4.96600
H 1.13000 -0.63900 5.18900
H -0.84400 0.02600 7.12500
H 0.06200 1.47700 6.92100
H -1.34400 5.18600 1.93800
H -1.65100 5.96300 0.43200
H 0.00700 6.02000 1.08400
H -0.63500 6.74400 -1.40500
H 0.66500 6.97000 -2.70400
H 1.04800 6.46600 -1.03600
H 0.60800 0.50100 -4.89100
H -0.69200 -2.15600 -4.54700
H -1.26700 0.74000 -6.12900
H -2.20400 0.71400 -4.59600
H -1.96700 -0.72000 -5.45300
H 1.35600 -1.75900 -5.96700
H 1.45200 -3.15700 -4.90200
H 2.71400 -0.52200 -4.79800
H 3.48700 -2.12100 -4.52900
H 2.49500 -1.30300 -3.24000
H 0.86700 -6.33300 -0.08400
H 0.40400 -5.64200 -1.68000
H -0.89100 -5.99900 -0.46300
H -1.28300 -3.58100 4.02800
H 0.69800 -4.47800 7.75500
H 0.83300 -2.61900 7.68000
H 2.00000 -3.75400 6.97600
Mg 8.94173 0.80485 0.68614
C 7.38313 -1.03455 3.34442
C 9.05690 3.47670 2.80335
C 9.89965 2.57877 -1.76397
C 7.68493 -1.58478 -1.51745
N 8.27525 1.06395 2.77921
C 7.75289 0.27717 3.70789
C 7.69326 0.90709 5.12536
C 7.69833 2.45579 4.70066
C 8.41906 2.33901 3.35918
C 6.30807 3.01532 4.44881
C 8.94928 0.54543 5.99348
C 8.81521 0.86671 7.48364
H 9.44367 -0.03130 8.44856
N 9.85140 2.56841 0.65551
C 9.80929 3.52240 1.60913
C 10.62585 4.63557 1.10095
C 11.01829 4.32753 -0.30112
C 10.23727 3.12972 -0.53636
C 11.02599 5.80581 1.95175
C 11.93388 5.00671 -1.27406
O 11.94238 4.69881 -2.51823
C 12.75316 6.10686 -0.74497
N 8.63684 0.65819 -1.36517
C 9.20920 1.53057 -2.21328
C 9.07611 1.06734 -3.64439
C 8.50468 -0.42405 -3.56184
C 8.31386 -0.53770 -2.03342
C 8.16568 1.91232 -4.53518
C 9.31679 -1.53017 -4.28961
C 10.64752 -1.73098 -3.60098
N 7.90995 -1.08506 0.86420
C 7.45272 -1.90962 -0.18706
C 6.71008 -3.02844 0.42868
C 6.76757 -2.76273 1.80512
C 7.47738 -1.55231 2.02997
C 6.05577 -4.07927 -0.27400
C 6.38006 -3.22538 3.11832
O 5.83743 -4.23860 3.55726
C 6.65245 -2.06076 4.16516
C 7.37130 -2.65550 5.34501
O 8.51853 -3.11859 5.21838
O 6.67811 -2.38424 6.46584
C 7.35710 -2.94424 7.66467
H 8.93610 4.43663 3.30616
H 10.30212 3.09447 -2.63893
H 7.34671 -2.42293 -2.13046
H 6.79526 0.67841 5.68667
H 8.28139 3.05412 5.39594
H 5.55172 2.24528 4.48225
H 6.34598 3.46595 3.46568
H 6.09799 3.83115 5.14639
H 9.77357 1.22028 5.72920
H 9.21434 -0.48647 5.86873
H 7.77627 1.07151 7.76930
H 9.33837 1.80471 7.68482
H 10.45235 5.83854 2.88624
H 10.72179 6.71061 1.41447
H 12.10229 5.84694 2.13215
H 12.10346 6.87327 -0.32906
H 13.40587 6.40671 -1.56712
H 13.35929 5.72440 0.08385
H 10.04117 1.04721 -4.13569
H 7.50333 -0.50211 -4.01021
H 8.67553 2.30033 -5.43716
H 7.76863 2.72615 -3.94309
H 7.26096 1.41251 -4.87704
H 9.54073 -1.22340 -5.31426
H 8.79815 -2.48149 -4.34432
H 11.26959 -0.94014 -4.03074
H 11.05051 -2.71635 -3.82610
H 10.56674 -1.53867 -2.52481
H 6.29007 -4.99678 0.24925
H 6.37430 -4.12105 -1.31350
H 5.01457 -3.76053 -0.17622
H 5.68628 -1.63884 4.44458
H 6.63000 -3.58442 8.17379
H 7.73992 -2.07138 8.22619
H 8.17216 -3.63926 7.50014

