%nproc=24
%mem=175gb
#p cam-b3lyp/Def2SVP td=(nstates=5)

TDDFT excited states in gaussian

0 1
Mg 0.00000 0.00000 0.00000
C -0.21700 -2.21800 2.80100
C -1.25500 2.44200 2.02600
C -0.24500 1.85000 -2.56400
C 0.14600 -2.82400 -2.03700
N -0.61700 -0.00900 2.12600
C -0.59400 -0.90800 3.10500
C -0.93600 -0.30900 4.50200
C -1.77300 0.96400 4.03200
C -1.15500 1.16800 2.66000
C -3.26300 0.68500 3.86300
C 0.34500 0.11000 5.29900
C 0.12400 0.39700 6.78700
H 1.16800 0.03300 7.73300
N -0.18500 1.96100 -0.15200
C -0.70300 2.80000 0.77700
C -0.62000 4.15600 0.19300
C -0.18700 4.01500 -1.22500
C -0.21400 2.58300 -1.38000
C -0.88700 5.40600 0.97400
C 0.18100 5.01300 -2.27700
O 0.30300 4.69000 -3.50800
C 0.31000 6.41400 -1.83700
N -0.26500 -0.41300 -2.02900
C -0.27900 0.56900 -2.93700
C -0.19600 0.02400 -4.33200
C 0.12400 -1.53300 -4.18000
C 0.08600 -1.63200 -2.63500
C -1.45100 0.20500 -5.19700
C 1.37300 -2.07000 -4.92300
C 2.62600 -1.49000 -4.30600
N 0.15000 -2.14400 0.30300
C 0.17300 -3.13600 -0.68800
C 0.17300 -4.43800 0.00400
C 0.13300 -4.11100 1.35800
C 0.08300 -2.69500 1.50200
C 0.14900 -5.71500 -0.62300
C 0.09600 -4.62900 2.71600
O 0.20800 -5.74700 3.22100
C -0.25500 -3.42800 3.70100
C 0.71700 -3.48200 4.84800
O 1.93100 -3.25500 4.66900
O 0.03800 -3.55600 6.00300
C 0.94300 -3.58300 7.18300
H -1.85900 3.22000 2.49700
H -0.21800 2.45300 -3.47400
H 0.27600 -3.74700 -2.60500
H -1.55400 -0.94900 5.13200
H -1.58500 1.83100 4.66500
H -3.48400 -0.37700 3.96900
H -3.51100 1.02700 2.85800
H -3.85200 1.30100 4.54300
H 0.66900 1.09600 4.96600
H 1.13000 -0.63900 5.18900
H -0.84400 0.02600 7.12500
H 0.06200 1.47700 6.92100
H -1.34400 5.18600 1.93800
H -1.65100 5.96300 0.43200
H 0.00700 6.02000 1.08400
H -0.63500 6.74400 -1.40500
H 0.66500 6.97000 -2.70400
H 1.04800 6.46600 -1.03600
H 0.60800 0.50100 -4.89100
H -0.69200 -2.15600 -4.54700
H -1.26700 0.74000 -6.12900
H -2.20400 0.71400 -4.59600
H -1.96700 -0.72000 -5.45300
H 1.35600 -1.75900 -5.96700
H 1.45200 -3.15700 -4.90200
H 2.71400 -0.52200 -4.79800
H 3.48700 -2.12100 -4.52900
H 2.49500 -1.30300 -3.24000
H 0.86700 -6.33300 -0.08400
H 0.40400 -5.64200 -1.68000
H -0.89100 -5.99900 -0.46300
H -1.28300 -3.58100 4.02800
H 0.69800 -4.47800 7.75500
H 0.83300 -2.61900 7.68000
H 2.00000 -3.75400 6.97600
Mg 7.88971 0.71802 0.59860
C 7.30819 2.13214 3.84531
C 6.83941 3.68455 -0.71713
C 7.96085 -0.64166 -2.26735
C 7.78927 -2.42438 2.10225
N 7.19026 2.59114 1.54434
C 7.07001 3.03360 2.78697
C 6.75014 4.54817 2.90230
C 6.07541 4.76189 1.46080
C 6.76623 3.63348 0.69784
C 4.57883 4.49825 1.45178
C 8.04342 5.42141 3.06632
C 7.79190 6.86931 3.49305
H 8.75563 7.50984 4.38379
N 7.93728 1.53474 -1.20951
C 7.48865 2.75774 -1.56203
C 7.73360 2.87480 -3.00787
C 8.21231 1.55845 -3.51062
C 8.03160 0.74254 -2.32667
C 7.58765 4.16813 -3.75581
C 8.73299 1.10560 -4.84104
O 8.86728 -0.13729 -5.12395
C 8.99263 2.15665 -5.83570
N 7.66656 -1.24969 -0.03440
C 7.79489 -1.57719 -1.33217
C 7.86851 -3.07472 -1.51213
C 8.00659 -3.67836 -0.03764
C 7.89427 -2.37379 0.78142
C 6.67478 -3.71962 -2.21605
C 9.21572 -4.61638 0.22843
C 10.50480 -3.83002 0.15557
N 7.78844 -0.03613 2.62074
C 7.73074 -1.38789 3.02509
C 7.55543 -1.39644 4.49194
C 7.49977 -0.03821 4.83922
C 7.61085 0.76027 3.66892
C 7.42154 -2.55570 5.30699
C 7.36164 0.90151 5.92850
O 7.31900 0.80988 7.15469
C 7.10448 2.34694 5.31941
C 8.01838 3.31521 6.01924
O 9.25182 3.22962 5.88540
O 7.28344 4.30852 6.55175
C 8.14643 5.30013 7.24728
H 6.31455 4.48772 -1.23513
H 8.09203 -1.16171 -3.21910
H 7.84735 -3.36333 2.65693
H 6.04586 4.80545 3.68433
H 6.34286 5.72712 1.03869
H 4.23513 4.09482 2.39266
H 4.40984 3.78931 0.65184
H 4.03786 5.40594 1.16933
H 8.48837 5.59156 2.07748
H 8.73188 4.95866 3.74641
H 6.76971 7.01880 3.86146
H 7.85395 7.50759 2.60831
H 7.06328 4.92251 -3.15635
H 6.91533 3.97581 -4.59894
H 8.53894 4.54191 -4.14051
H 8.07603 2.71090 -6.02307
H 9.44354 1.64644 -6.68908
H 9.71019 2.86875 -5.41304
H 8.74225 -3.35244 -2.08880
H 7.13715 -4.29527 0.23316
H 6.95816 -4.29391 -3.11825
H 5.96583 -2.94197 -2.46743
H 6.07718 -4.38527 -1.59559
H 9.27665 -5.38470 -0.54625
H 9.16449 -5.12646 1.18456
H 10.71612 -3.80145 -0.91756
H 11.29635 -4.34070 0.70027
H 10.35493 -2.79678 0.48965
H 8.03644 -2.39361 6.18227
H 7.71973 -3.45472 4.77162
H 6.34634 -2.53269 5.50370
H 6.05285 2.58765 5.47977
H 7.77532 5.38245 8.27353
H 8.11299 6.21395 6.62473
H 9.18218 5.03075 7.41790

