%nproc=24
%mem=175gb
#p cam-b3lyp/Def2SVP td=(nstates=5)

TDDFT excited states in gaussian

0 1
Mg 31.53951 2.83625 2.40291
C 31.68217 -0.72889 2.01751
C 30.46233 2.29836 5.59429
C 30.97292 5.94985 2.63071
C 31.51332 3.07178 -1.07409
N 31.16105 0.97944 3.54365
C 31.30916 -0.31654 3.31376
C 31.12053 -1.21720 4.56388
C 30.20053 -0.23023 5.43472
C 30.65578 1.10608 4.85189
C 28.71507 -0.39101 5.15742
C 32.47765 -1.52601 5.28837
C 32.41054 -2.64522 6.32981
H 33.56703 -3.52357 6.48312
N 31.29832 3.98395 4.00390
C 30.87497 3.59767 5.22572
C 30.84840 4.81808 6.04673
C 31.13252 5.98283 5.16505
C 31.12489 5.33881 3.86687
C 30.65123 4.79367 7.53466
C 31.35925 7.43800 5.44303
O 31.35274 8.31166 4.50522
C 31.49608 7.82205 6.85557
N 31.06726 4.29023 0.99391
C 30.92440 5.57858 1.35121
C 30.86072 6.47697 0.13909
C 31.23489 5.54570 -1.10603
C 31.36888 4.19059 -0.37726
C 29.51412 7.15300 -0.11788
C 32.40606 6.01736 -2.01079
C 33.70820 5.95145 -1.24564
N 31.77298 1.46542 0.74931
C 31.70149 1.76996 -0.62773
C 31.80763 0.49257 -1.36220
C 31.91121 -0.47648 -0.35289
C 31.85205 0.15061 0.92098
C 31.75253 0.33895 -2.77623
C 32.04644 -1.88835 -0.07533
O 32.23121 -2.89431 -0.75917
C 31.77703 -2.12708 1.47284
C 32.87071 -3.01300 2.00343
O 34.04762 -2.61259 2.03784
O 32.31934 -4.09626 2.58041
C 33.36393 -5.00002 3.13165
H 29.90442 2.24249 6.52944
H 30.88546 7.03862 2.65051
H 31.61177 3.07007 -2.16174
H 30.59660 -2.14726 4.37881
H 30.44787 -0.28939 6.49145
H 28.52965 -1.06208 4.33193
H 28.34960 0.60132 4.92773
H 28.19318 -0.70130 6.06719
H 32.73731 -0.68023 5.93796
H 33.24966 -1.74155 4.57551
H 31.48941 -3.23425 6.24310
H 32.34669 -2.19240 7.32223
H 30.30260 3.81191 7.87818
H 29.81962 5.47068 7.75817
H 31.53534 5.12710 8.08223
H 30.60034 7.52885 7.39793
H 31.74112 8.88589 6.84675
H 32.32746 7.25774 7.29260
H 31.58822 7.27610 0.21137
H 30.39284 5.44398 -1.80634
H 29.58146 8.25635 -0.16433
H 28.82478 6.84642 0.65759
H 29.00139 6.83183 -1.02296
H 32.26655 7.06285 -2.29652
H 32.50275 5.44344 -2.92635
H 33.71343 6.89158 -0.68598
H 34.55224 5.89484 -1.93005
H 33.69494 5.13352 -0.51594
H 32.53196 -0.36203 -3.04386
H 31.88197 1.29192 -3.28502
H 30.73831 -0.05293 -2.89047
H 30.79376 -2.58963 1.56674
H 33.20082 -5.98614 2.68595
H 33.27502 -4.92347 4.23164
H 34.39252 -4.80796 2.84958

