%nproc=24
%mem=175gb
#p cam-b3lyp/Def2SVP td=(nstates=5)

TDDFT excited states in gaussian

0 1
Mg 0.00000 0.00000 0.00000
C -0.21700 -2.21800 2.80100
C -1.25500 2.44200 2.02600
C -0.24500 1.85000 -2.56400
C 0.14600 -2.82400 -2.03700
N -0.61700 -0.00900 2.12600
C -0.59400 -0.90800 3.10500
C -0.93600 -0.30900 4.50200
C -1.77300 0.96400 4.03200
C -1.15500 1.16800 2.66000
C -3.26300 0.68500 3.86300
C 0.34500 0.11000 5.29900
C 0.12400 0.39700 6.78700
H 1.16800 0.03300 7.73300
N -0.18500 1.96100 -0.15200
C -0.70300 2.80000 0.77700
C -0.62000 4.15600 0.19300
C -0.18700 4.01500 -1.22500
C -0.21400 2.58300 -1.38000
C -0.88700 5.40600 0.97400
C 0.18100 5.01300 -2.27700
O 0.30300 4.69000 -3.50800
C 0.31000 6.41400 -1.83700
N -0.26500 -0.41300 -2.02900
C -0.27900 0.56900 -2.93700
C -0.19600 0.02400 -4.33200
C 0.12400 -1.53300 -4.18000
C 0.08600 -1.63200 -2.63500
C -1.45100 0.20500 -5.19700
C 1.37300 -2.07000 -4.92300
C 2.62600 -1.49000 -4.30600
N 0.15000 -2.14400 0.30300
C 0.17300 -3.13600 -0.68800
C 0.17300 -4.43800 0.00400
C 0.13300 -4.11100 1.35800
C 0.08300 -2.69500 1.50200
C 0.14900 -5.71500 -0.62300
C 0.09600 -4.62900 2.71600
O 0.20800 -5.74700 3.22100
C -0.25500 -3.42800 3.70100
C 0.71700 -3.48200 4.84800
O 1.93100 -3.25500 4.66900
O 0.03800 -3.55600 6.00300
C 0.94300 -3.58300 7.18300
H -1.85900 3.22000 2.49700
H -0.21800 2.45300 -3.47400
H 0.27600 -3.74700 -2.60500
H -1.55400 -0.94900 5.13200
H -1.58500 1.83100 4.66500
H -3.48400 -0.37700 3.96900
H -3.51100 1.02700 2.85800
H -3.85200 1.30100 4.54300
H 0.66900 1.09600 4.96600
H 1.13000 -0.63900 5.18900
H -0.84400 0.02600 7.12500
H 0.06200 1.47700 6.92100
H -1.34400 5.18600 1.93800
H -1.65100 5.96300 0.43200
H 0.00700 6.02000 1.08400
H -0.63500 6.74400 -1.40500
H 0.66500 6.97000 -2.70400
H 1.04800 6.46600 -1.03600
H 0.60800 0.50100 -4.89100
H -0.69200 -2.15600 -4.54700
H -1.26700 0.74000 -6.12900
H -2.20400 0.71400 -4.59600
H -1.96700 -0.72000 -5.45300
H 1.35600 -1.75900 -5.96700
H 1.45200 -3.15700 -4.90200
H 2.71400 -0.52200 -4.79800
H 3.48700 -2.12100 -4.52900
H 2.49500 -1.30300 -3.24000
H 0.86700 -6.33300 -0.08400
H 0.40400 -5.64200 -1.68000
H -0.89100 -5.99900 -0.46300
H -1.28300 -3.58100 4.02800
H 0.69800 -4.47800 7.75500
H 0.83300 -2.61900 7.68000
H 2.00000 -3.75400 6.97600
Mg 13.14106 1.19098 1.00435
C 14.38849 -0.54020 3.88983
C 10.77062 2.56301 3.03737
C 11.74514 2.37417 -1.58773
C 14.83279 -1.14248 -0.95491
N 12.73516 0.96402 3.16676
C 13.31329 0.32730 4.17408
C 12.75657 0.69939 5.57450
C 11.30000 1.20658 5.12725
C 11.62034 1.64038 3.69831
C 10.26703 0.09355 5.06829
C 13.57917 1.84681 6.25918
C 13.28575 2.04850 7.74746
H 14.38477 2.43671 8.62719
N 11.82564 2.66468 0.81340
C 10.95639 3.10556 1.74684
C 10.19586 4.19062 1.10779
C 10.57353 4.24410 -0.33069
C 11.39865 3.05699 -0.43090
C 9.28123 5.10300 1.87227
C 10.23616 5.19784 -1.43647
O 10.48070 4.91976 -2.66354
C 9.52658 6.42589 -1.04933
N 13.09265 0.56971 -0.97908
C 12.45579 1.29483 -1.91531
C 12.78705 0.80377 -3.30439
C 13.97303 -0.25229 -3.11528
C 14.06572 -0.25535 -1.57359
C 11.63823 0.14693 -4.06934
C 15.27055 -0.00738 -3.93329
C 15.96373 1.24212 -3.43969
N 14.53546 -0.42042 1.36087
C 15.10006 -1.28803 0.40037
C 15.89652 -2.29198 1.13532
C 15.71997 -1.94990 2.48451
C 14.85699 -0.82528 2.58446
C 16.61344 -3.37445 0.55188
C 16.05887 -2.29093 3.84742
O 16.82278 -3.09705 4.37691
C 15.11046 -1.47083 4.82433
C 15.96744 -0.85922 5.89859
O 16.80891 0.01191 5.61634
O 15.50507 -1.24249 7.10263
C 16.31597 -0.65233 8.20080
H 9.85095 2.87044 3.53595
H 11.37820 2.80959 -2.52007
H 15.46908 -1.84402 -1.49864
H 12.66555 -0.13230 6.26281
H 10.97865 2.05818 5.72129
H 10.71232 -0.87799 5.22312
H 9.82501 0.15437 4.08241
H 9.45646 0.29371 5.77486
H 13.23869 2.81409 5.86778
H 14.63182 1.69910 6.11517
H 12.72987 1.20567 8.17591
H 12.60825 2.89901 7.85544
H 9.07750 4.71724 2.87879
H 8.30869 5.07586 1.36899
H 9.63849 6.13474 1.89544
H 8.59289 6.16368 -0.55748
H 9.45311 7.02092 -1.96170
H 10.13223 6.96155 -0.30983
H 13.13667 1.61676 -3.92882
H 13.66749 -1.26590 -3.41374
H 11.42808 0.63116 -5.04168
H 10.75810 0.15935 -3.44026
H 11.76442 -0.91578 -4.26913
H 15.02829 0.16680 -4.98454
H 15.96744 -0.83804 -3.89676
H 15.43607 2.04201 -3.96773
H 17.01923 1.22430 -3.70360
H 15.79463 1.38814 -2.36650
H 17.57204 -3.41828 1.05154
H 16.72955 -3.24168 -0.52174
H 15.94372 -4.20433 0.79281
H 14.37837 -2.16871 5.23247
H 16.66820 -1.48320 8.81989
H 15.66159 0.09570 8.68658
H 17.25209 -0.17668 7.93270

