%nproc=24
%mem=175gb
#p cam-b3lyp/Def2SVP td=(nstates=5)

TDDFT excited states in gaussian

0 1
Mg 10.51746 0.94703 0.80670
C 10.52561 -2.44294 1.98444
C 9.32020 1.85090 3.87006
C 10.07232 3.87168 -0.34036
C 10.60929 -0.32591 -2.43628
N 10.02775 -0.23429 2.61139
C 10.12963 -1.50727 2.96279
C 9.86534 -1.78229 4.46748
C 8.95994 -0.49618 4.79158
C 9.48759 0.45145 3.71629
C 7.47849 -0.72466 4.54168
C 11.18541 -1.78395 5.31567
C 11.04000 -2.34858 6.73052
H 12.15413 -3.10433 7.29623
N 10.27381 2.67438 1.75300
C 9.79711 2.85770 3.00217
C 9.79508 4.31220 3.22259
C 10.15410 4.98111 1.94260
C 10.16049 3.84432 1.04384
C 9.55082 4.93092 4.56830
C 10.43159 6.40959 1.58393
O 10.49017 6.79836 0.36399
C 10.54000 7.35726 2.70271
N 10.14941 1.66990 -1.10755
C 10.04849 2.99033 -1.34035
C 10.05953 3.28554 -2.82127
C 10.43377 1.90276 -3.53222
C 10.48926 0.98650 -2.29013
C 8.75047 3.81868 -3.40310
C 11.65092 1.91434 -4.49714
C 12.92480 2.15088 -3.71824
N 10.74587 -1.00425 -0.09240
C 10.72987 -1.31602 -1.46958
C 10.80633 -2.78691 -1.58389
C 10.83854 -3.23364 -0.25427
C 10.76551 -2.12095 0.62668
C 10.78905 -3.52892 -2.79849
C 10.90701 -4.39410 0.60440
O 11.07154 -5.59993 0.42373
C 10.57992 -3.94160 2.09257
C 11.61926 -4.54141 2.99950
O 12.80996 -4.19287 2.91373
O 11.00618 -5.26057 3.95726
C 11.99511 -5.86652 4.88821
H 8.73160 2.21346 4.71326
H 10.02904 4.86615 -0.79050
H 10.74143 -0.79476 -3.41372
H 9.30970 -2.68944 4.67271
H 9.17160 -0.10378 5.78284
H 7.29149 -1.67959 4.07340
H 7.16139 0.08262 3.89454
H 6.91622 -0.60373 5.47203
H 11.45920 -0.74810 5.55397
H 11.96976 -2.30186 4.79876
H 10.09862 -2.89602 6.86112
H 10.96391 -1.51358 7.43124
H 9.15166 4.19886 5.28115
H 8.74114 5.65808 4.44370
H 10.43038 5.44529 4.96132
H 9.61652 7.34548 3.27674
H 10.82866 8.30905 2.25254
H 11.33350 7.01433 3.37605
H 10.81661 4.02130 -3.06330
H 9.61048 1.53150 -4.16006
H 8.86446 4.79432 -3.91222
H 8.02530 3.88954 -2.60332
H 8.25344 3.15372 -4.10736
H 11.56341 2.74032 -5.20724
H 11.75246 1.00198 -5.07531
H 12.95116 3.23961 -3.61304
H 13.78672 1.78704 -4.27390
H 12.85524 1.72397 -2.71098
H 11.54701 -4.29536 -2.70591
H 10.97328 -2.88831 -3.65840
H 9.76365 -3.90776 -2.78104
H 9.57605 -4.29605 2.32960
H 11.80563 -6.94433 4.89835
H 11.87519 -5.32497 5.84534
H 13.03901 -5.83801 4.59852

