%nproc=24
%mem=175gb
#p cam-b3lyp/Def2SVP td=(nstates=5)

TDDFT excited states in gaussian

0 1
Mg 0.00000 0.00000 0.00000
C -0.21700 -2.21800 2.80100
C -1.25500 2.44200 2.02600
C -0.24500 1.85000 -2.56400
C 0.14600 -2.82400 -2.03700
N -0.61700 -0.00900 2.12600
C -0.59400 -0.90800 3.10500
C -0.93600 -0.30900 4.50200
C -1.77300 0.96400 4.03200
C -1.15500 1.16800 2.66000
C -3.26300 0.68500 3.86300
C 0.34500 0.11000 5.29900
C 0.12400 0.39700 6.78700
H 1.16800 0.03300 7.73300
N -0.18500 1.96100 -0.15200
C -0.70300 2.80000 0.77700
C -0.62000 4.15600 0.19300
C -0.18700 4.01500 -1.22500
C -0.21400 2.58300 -1.38000
C -0.88700 5.40600 0.97400
C 0.18100 5.01300 -2.27700
O 0.30300 4.69000 -3.50800
C 0.31000 6.41400 -1.83700
N -0.26500 -0.41300 -2.02900
C -0.27900 0.56900 -2.93700
C -0.19600 0.02400 -4.33200
C 0.12400 -1.53300 -4.18000
C 0.08600 -1.63200 -2.63500
C -1.45100 0.20500 -5.19700
C 1.37300 -2.07000 -4.92300
C 2.62600 -1.49000 -4.30600
N 0.15000 -2.14400 0.30300
C 0.17300 -3.13600 -0.68800
C 0.17300 -4.43800 0.00400
C 0.13300 -4.11100 1.35800
C 0.08300 -2.69500 1.50200
C 0.14900 -5.71500 -0.62300
C 0.09600 -4.62900 2.71600
O 0.20800 -5.74700 3.22100
C -0.25500 -3.42800 3.70100
C 0.71700 -3.48200 4.84800
O 1.93100 -3.25500 4.66900
O 0.03800 -3.55600 6.00300
C 0.94300 -3.58300 7.18300
H -1.85900 3.22000 2.49700
H -0.21800 2.45300 -3.47400
H 0.27600 -3.74700 -2.60500
H -1.55400 -0.94900 5.13200
H -1.58500 1.83100 4.66500
H -3.48400 -0.37700 3.96900
H -3.51100 1.02700 2.85800
H -3.85200 1.30100 4.54300
H 0.66900 1.09600 4.96600
H 1.13000 -0.63900 5.18900
H -0.84400 0.02600 7.12500
H 0.06200 1.47700 6.92100
H -1.34400 5.18600 1.93800
H -1.65100 5.96300 0.43200
H 0.00700 6.02000 1.08400
H -0.63500 6.74400 -1.40500
H 0.66500 6.97000 -2.70400
H 1.04800 6.46600 -1.03600
H 0.60800 0.50100 -4.89100
H -0.69200 -2.15600 -4.54700
H -1.26700 0.74000 -6.12900
H -2.20400 0.71400 -4.59600
H -1.96700 -0.72000 -5.45300
H 1.35600 -1.75900 -5.96700
H 1.45200 -3.15700 -4.90200
H 2.71400 -0.52200 -4.79800
H 3.48700 -2.12100 -4.52900
H 2.49500 -1.30300 -3.24000
H 0.86700 -6.33300 -0.08400
H 0.40400 -5.64200 -1.68000
H -0.89100 -5.99900 -0.46300
H -1.28300 -3.58100 4.02800
H 0.69800 -4.47800 7.75500
H 0.83300 -2.61900 7.68000
H 2.00000 -3.75400 6.97600
Mg 8.94062 0.80795 0.68632
C 8.79933 -1.90603 3.03013
C 7.69027 2.80574 3.15210
C 8.62849 3.11047 -1.47433
C 9.07893 -1.57511 -1.85290
N 8.36047 0.38818 2.77904
C 8.40867 -0.66667 3.57860
C 8.09325 -0.36029 5.06729
C 7.22395 0.97384 4.85927
C 7.81364 1.44528 3.53161
C 5.74306 0.70135 4.65422
C 9.38834 -0.07697 5.90663
C 9.18423 -0.07540 7.42324
H 10.25550 -0.59252 8.27025
N 8.73027 2.76758 0.91907
C 8.22553 3.40989 1.99329
C 8.26740 4.84255 1.66176
C 8.68474 4.98306 0.24022
C 8.67706 3.59474 -0.17523
C 8.00716 5.91996 2.67412
C 9.02109 6.17146 -0.60877
O 9.12698 6.08045 -1.88287
C 9.13082 7.46293 0.08517
N 8.65114 0.77993 -1.37227
C 8.60222 1.92268 -2.07913
C 8.66467 1.64933 -3.56297
C 9.01079 0.09394 -3.69910
C 9.00009 -0.29935 -2.20558
C 7.39144 1.95792 -4.35040
C 10.25403 -0.27832 -4.55258
C 11.51309 0.20167 -3.86719
N 9.12673 -1.34193 0.57937
C 9.13840 -2.14020 -0.58541
C 9.16737 -3.55048 -0.14642
C 9.14714 -3.47474 1.25441
C 9.08791 -2.11393 1.65964
C 9.15843 -4.68829 -1.00165
C 9.15169 -4.23686 2.48235
O 9.27962 -5.42735 2.76540
C 8.79902 -3.25940 3.68510
C 9.79144 -3.50393 4.78865
O 10.99535 -3.23767 4.62647
O 9.12754 -3.80472 5.91964
C 10.06872 -4.04497 7.04582
H 7.09123 3.46694 3.77887
H 8.63200 3.86885 -2.26067
H 9.22205 -2.37477 -2.58279
H 7.50123 -1.11508 5.57086
H 7.42128 1.70013 5.64344
H 5.53644 -0.35474 4.56409
H 5.47207 1.21896 3.74334
H 5.15957 1.16973 5.45202
H 9.69085 0.96742 5.75669
H 10.16850 -0.76612 5.64773
H 8.22130 -0.51526 7.71001
H 9.11741 0.96089 7.76332
H 7.56335 5.51203 3.59065
H 7.22676 6.56695 2.25909
H 8.89261 6.52397 2.88349
H 8.19185 7.68416 0.58701
H 9.46448 8.17445 -0.67265
H 9.89298 7.37603 0.86759
H 9.45306 2.22695 -4.02976
H 8.19302 -0.46514 -4.17714
H 7.55307 2.67360 -5.17851
H 6.64714 2.33506 -3.66170
H 6.89165 1.09070 -4.77858
H 10.21480 0.22841 -5.51997
H 10.34019 -1.34174 -4.74934
H 11.57395 1.25134 -4.16980
H 12.37713 -0.36036 -4.21588
H 11.40085 0.17888 -2.77699
H 9.88669 -5.38249 -0.60388
H 9.38848 -4.41501 -2.02935
H 8.12051 -5.01153 -0.88537
H 7.77734 -3.47931 3.99716
H 9.84207 -5.03834 7.44523
H 9.94088 -3.18556 7.73052
H 11.12064 -4.14819 6.80655

