%nproc=24
%mem=175gb
#p cam-b3lyp/Def2SVP td=(nstates=5)

TDDFT excited states in gaussian

0 1
Mg 8.94081 0.80879 0.68568
C 8.56298 -1.41003 3.48088
C 7.82746 3.31417 2.71500
C 8.83242 2.69229 -1.86542
C 8.91601 -2.00354 -1.37244
N 8.30874 0.82557 2.80522
C 8.26578 -0.06509 3.78462
C 7.96079 0.53242 5.18445
C 7.20140 1.86754 4.71576
C 7.83949 2.04117 3.33904
C 5.70574 1.67484 4.52812
C 9.26582 0.86627 5.98910
C 9.04749 1.16174 7.47463
H 10.06627 0.72942 8.42734
N 8.88322 2.78804 0.55213
C 8.42007 3.65300 1.47874
C 8.57796 4.99307 0.89270
C 9.01910 4.83817 -0.52014
C 8.90617 3.40180 -0.67558
C 8.39344 6.25462 1.68509
C 9.45641 5.82155 -1.56318
O 9.56738 5.49038 -2.79640
C 9.66070 7.20643 -1.11386
N 8.67037 0.42521 -1.33968
C 8.71863 1.41909 -2.24400
C 8.77400 0.87398 -3.65119
C 8.99782 -0.70161 -3.49308
C 8.94142 -0.81200 -1.95359
C 7.53689 1.12814 -4.51220
C 10.21624 -1.31723 -4.23412
C 11.50237 -0.81618 -3.61751
N 8.95800 -1.33198 0.97699
C 8.91825 -2.32912 -0.02211
C 8.83167 -3.63288 0.66719
C 8.80363 -3.29988 2.02984
C 8.84780 -1.88729 2.17864
C 8.74156 -4.90440 0.03376
C 8.73599 -3.82168 3.37589
O 8.76692 -4.94615 3.87423
C 8.44957 -2.61615 4.37140
C 9.40868 -2.72822 5.52468
O 10.63137 -2.58812 5.34580
O 8.71200 -2.76511 6.67518
C 9.62016 -2.86497 7.84869
H 7.27621 4.12261 3.19607
H 8.90345 3.29090 -2.77652
H 9.00288 -2.93213 -1.94064
H 7.30619 -0.07008 5.80273
H 7.44759 2.70843 5.35892
H 5.41746 0.63886 4.62707
H 5.48539 2.03537 3.53187
H 5.15312 2.32453 5.21283
H 9.65114 1.83943 5.65862
H 9.99178 0.08428 5.87909
H 8.05012 0.85614 7.81344
H 9.05917 2.24490 7.61837
H 7.90983 6.05669 2.64963
H 7.67058 6.87154 1.14033
H 9.32161 6.81806 1.80216
H 8.73716 7.58644 -0.68359
H 10.05684 7.73937 -1.98042
H 10.40587 7.20728 -0.31054
H 9.61003 1.29473 -4.19628
H 8.14332 -1.27548 -3.88080
H 7.76257 1.66526 -5.45276
H 6.81785 1.68054 -3.92197
H 6.97458 0.23737 -4.78704
H 10.22662 -0.99527 -5.27833
H 10.22029 -2.40211 -4.23156
H 11.64874 0.15241 -4.10485
H 12.32285 -1.49641 -3.83693
H 11.37793 -0.62982 -2.54446
H 9.40890 -5.56682 0.56889
H 9.00256 -4.84269 -1.02068
H 7.68030 -5.12133 0.18192
H 7.41070 -2.69708 4.69356
H 9.31201 -3.74806 8.41691
H 9.55367 -1.88727 8.36195
H 10.66299 -3.08964 7.65772

