%nproc=24
%mem=175gb
#p cam-b3lyp/Def2SVP td=(nstates=5)

TDDFT excited states in gaussian

0 1
Mg 13.14058 1.19116 1.00430
C 14.51161 -0.44219 3.89073
C 10.70065 2.42261 3.04510
C 11.65759 2.26989 -1.58501
C 14.96409 -1.04208 -0.95355
N 12.76263 0.95107 3.17034
C 13.38566 0.35753 4.17727
C 12.81498 0.70160 5.57923
C 11.32675 1.11371 5.13855
C 11.61065 1.55890 3.70541
C 10.36552 -0.06239 5.09179
C 13.56780 1.90224 6.25282
C 13.27114 2.09330 7.74187
H 14.34877 2.55470 8.61267
N 11.73393 2.57814 0.81404
C 10.84423 2.96863 1.75066
C 10.01315 4.00017 1.11083
C 10.37814 4.06935 -0.33025
C 11.27570 2.93594 -0.42955
C 9.04749 4.85743 1.87635
C 9.97486 4.99386 -1.43878
O 10.22911 4.72495 -2.66592
C 9.19173 6.17698 -1.05350
N 13.11956 0.55713 -0.97558
C 12.43278 1.23558 -1.91150
C 12.78601 0.75867 -3.30009
C 14.03719 -0.21966 -3.11302
C 14.13906 -0.20837 -1.57195
C 11.67626 0.02667 -4.05443
C 15.31184 0.10184 -3.94041
C 15.92796 1.39516 -3.45760
N 14.63570 -0.32737 1.36031
C 15.24805 -1.16305 0.40075
C 16.11045 -2.11085 1.13584
C 15.92076 -1.77311 2.48433
C 14.98934 -0.70445 2.58392
C 16.89058 -3.14930 0.55347
C 16.28855 -2.08462 3.84682
O 17.10480 -2.83817 4.37563
C 15.29625 -1.32041 4.82545
C 16.11942 -0.65019 5.89115
O 16.90272 0.27056 5.59913
O 15.68925 -1.05512 7.10001
C 16.46793 -0.40909 8.19002
H 9.76644 2.67434 3.54786
H 11.25844 2.67621 -2.51724
H 15.64002 -1.70521 -1.49766
H 12.78056 -0.13036 6.27237
H 10.95599 1.94668 5.73021
H 10.87197 -1.00313 5.24881
H 9.91469 -0.03493 4.10841
H 9.54818 0.09030 5.80241
H 13.16482 2.84402 5.85861
H 14.62679 1.82023 6.10297
H 12.77194 1.21956 8.17813
H 12.54213 2.90010 7.84973
H 8.87443 4.46518 2.88610
H 8.07560 4.76641 1.37933
H 9.33926 5.90971 1.89197
H 8.27933 5.85929 -0.55444
H 9.07555 6.76116 -1.96843
H 9.76687 6.75374 -0.32058
H 13.08007 1.58857 -3.93088
H 13.79426 -1.25211 -3.40434
H 11.43029 0.49135 -5.02790
H 10.80085 -0.01282 -3.41990
H 11.86788 -1.02709 -4.24955
H 15.05285 0.25463 -4.99100
H 16.05982 -0.68314 -3.90399
H 15.34788 2.15736 -3.98642
H 16.98089 1.44230 -3.72805
H 15.75639 1.53619 -2.38414
H 17.85299 -3.13000 1.04731
H 16.99172 -3.01543 -0.52153
H 16.27585 -4.01831 0.80286
H 14.61195 -2.06068 5.24175
H 16.87542 -1.21273 8.81115
H 15.77068 0.29898 8.67606
H 17.37066 0.12301 7.91360

