%nproc=24
%mem=175gb
#p cam-b3lyp/Def2SVP td=(nstates=5)

TDDFT excited states in gaussian

0 1
Mg 0.00000 0.00000 0.00000
C -0.21700 -2.21800 2.80100
C -1.25500 2.44200 2.02600
C -0.24500 1.85000 -2.56400
C 0.14600 -2.82400 -2.03700
N -0.61700 -0.00900 2.12600
C -0.59400 -0.90800 3.10500
C -0.93600 -0.30900 4.50200
C -1.77300 0.96400 4.03200
C -1.15500 1.16800 2.66000
C -3.26300 0.68500 3.86300
C 0.34500 0.11000 5.29900
C 0.12400 0.39700 6.78700
H 1.16800 0.03300 7.73300
N -0.18500 1.96100 -0.15200
C -0.70300 2.80000 0.77700
C -0.62000 4.15600 0.19300
C -0.18700 4.01500 -1.22500
C -0.21400 2.58300 -1.38000
C -0.88700 5.40600 0.97400
C 0.18100 5.01300 -2.27700
O 0.30300 4.69000 -3.50800
C 0.31000 6.41400 -1.83700
N -0.26500 -0.41300 -2.02900
C -0.27900 0.56900 -2.93700
C -0.19600 0.02400 -4.33200
C 0.12400 -1.53300 -4.18000
C 0.08600 -1.63200 -2.63500
C -1.45100 0.20500 -5.19700
C 1.37300 -2.07000 -4.92300
C 2.62600 -1.49000 -4.30600
N 0.15000 -2.14400 0.30300
C 0.17300 -3.13600 -0.68800
C 0.17300 -4.43800 0.00400
C 0.13300 -4.11100 1.35800
C 0.08300 -2.69500 1.50200
C 0.14900 -5.71500 -0.62300
C 0.09600 -4.62900 2.71600
O 0.20800 -5.74700 3.22100
C -0.25500 -3.42800 3.70100
C 0.71700 -3.48200 4.84800
O 1.93100 -3.25500 4.66900
O 0.03800 -3.55600 6.00300
C 0.94300 -3.58300 7.18300
H -1.85900 3.22000 2.49700
H -0.21800 2.45300 -3.47400
H 0.27600 -3.74700 -2.60500
H -1.55400 -0.94900 5.13200
H -1.58500 1.83100 4.66500
H -3.48400 -0.37700 3.96900
H -3.51100 1.02700 2.85800
H -3.85200 1.30100 4.54300
H 0.66900 1.09600 4.96600
H 1.13000 -0.63900 5.18900
H -0.84400 0.02600 7.12500
H 0.06200 1.47700 6.92100
H -1.34400 5.18600 1.93800
H -1.65100 5.96300 0.43200
H 0.00700 6.02000 1.08400
H -0.63500 6.74400 -1.40500
H 0.66500 6.97000 -2.70400
H 1.04800 6.46600 -1.03600
H 0.60800 0.50100 -4.89100
H -0.69200 -2.15600 -4.54700
H -1.26700 0.74000 -6.12900
H -2.20400 0.71400 -4.59600
H -1.96700 -0.72000 -5.45300
H 1.35600 -1.75900 -5.96700
H 1.45200 -3.15700 -4.90200
H 2.71400 -0.52200 -4.79800
H 3.48700 -2.12100 -4.52900
H 2.49500 -1.30300 -3.24000
H 0.86700 -6.33300 -0.08400
H 0.40400 -5.64200 -1.68000
H -0.89100 -5.99900 -0.46300
H -1.28300 -3.58100 4.02800
H 0.69800 -4.47800 7.75500
H 0.83300 -2.61900 7.68000
H 2.00000 -3.75400 6.97600
Mg 31.53926 2.84684 2.39366
C 30.92981 4.85361 5.30579
C 30.55682 5.52605 0.52517
C 31.63341 0.97162 -0.16410
C 31.36553 0.04485 4.45869
N 30.85502 4.87312 2.95779
C 30.72247 5.54287 4.09279
C 30.42495 7.05604 3.91572
C 29.77621 7.00337 2.44765
C 30.46082 5.74294 1.92297
C 28.27596 6.76172 2.46096
C 31.72922 7.92809 3.93641
C 31.49411 9.43347 4.07891
H 32.45391 10.21782 4.85095
N 31.62794 3.30826 0.46550
C 31.20433 4.44873 -0.11860
C 31.47359 4.28866 -1.55597
C 31.93910 2.89528 -1.79369
C 31.72704 2.31896 -0.48106
C 31.35985 5.41999 -2.53607
C 32.47317 2.19373 -3.00563
O 32.59209 0.91822 -3.04755
C 32.76492 3.03558 -4.17509
N 31.29477 0.79819 2.13754
C 31.43807 0.23085 0.92696
C 31.49068 -1.27461 1.03285
C 31.59619 -1.59186 2.59676
C 31.49187 -0.15521 3.15401
C 30.29797 -2.02521 0.44090
C 32.78599 -2.47835 3.05633
C 34.08837 -1.73613 2.86064
N 31.39456 2.48781 4.51927
C 31.30911 1.23707 5.16920
C 31.11088 1.50676 6.60808
C 31.07140 2.90666 6.69299
C 31.21335 3.46932 5.39578
C 30.94592 0.52327 7.62379
C 30.93127 4.03615 7.58368
O 30.86809 4.17732 8.80426
C 30.70661 5.34437 6.70934
C 31.62477 6.41532 7.23142
O 32.85862 6.29046 7.13860
O 30.89749 7.50029 7.55435
C 31.76519 8.59401 8.06690
H 30.05290 6.22405 -0.14398
H 31.77110 0.28024 -0.99867
H 31.40005 -0.77369 5.18083
H 29.71275 7.46471 4.62250
H 30.06550 7.86852 1.85671
H 27.91129 6.54684 3.45443
H 28.10820 5.91719 1.80547
H 27.75393 7.60688 2.00321
H 32.19215 7.90357 2.94151
H 32.39957 7.59281 4.70378
H 30.46881 9.66252 4.39395
H 31.58006 9.89313 3.09132
H 30.83826 6.28023 -2.09866
H 30.69777 5.08106 -3.34021
H 32.32284 5.70266 -2.96667
H 31.86027 3.55628 -4.47995
H 33.22090 2.36831 -4.90906
H 33.48703 3.80532 -3.88066
H 32.36878 -1.66687 0.53468
H 30.71295 -2.13576 2.96267
H 30.58620 -2.76248 -0.33204
H 29.60546 -1.29979 0.03501
H 29.68028 -2.55466 1.16432
H 32.84675 -3.37936 2.44099
H 32.71178 -2.79881 4.09015
H 34.31680 -1.91257 1.80528
H 34.86314 -2.14524 3.50593
H 33.94975 -0.65668 2.99190
H 31.54962 0.83928 8.46414
H 31.23809 -0.46410 7.27236
H 29.86829 0.59649 7.79299
H 29.65657 5.62426 6.80238
H 31.37950 8.87256 9.05247
H 31.75597 9.37478 7.28328
H 32.79375 8.34842 8.30398

