%nproc=24
%mem=175gb
#p cam-b3lyp/Def2SVP td=(nstates=5)

TDDFT excited states in gaussian

0 1
Mg 0.00000 0.00000 0.00000
C -0.21700 -2.21800 2.80100
C -1.25500 2.44200 2.02600
C -0.24500 1.85000 -2.56400
C 0.14600 -2.82400 -2.03700
N -0.61700 -0.00900 2.12600
C -0.59400 -0.90800 3.10500
C -0.93600 -0.30900 4.50200
C -1.77300 0.96400 4.03200
C -1.15500 1.16800 2.66000
C -3.26300 0.68500 3.86300
C 0.34500 0.11000 5.29900
C 0.12400 0.39700 6.78700
H 1.16800 0.03300 7.73300
N -0.18500 1.96100 -0.15200
C -0.70300 2.80000 0.77700
C -0.62000 4.15600 0.19300
C -0.18700 4.01500 -1.22500
C -0.21400 2.58300 -1.38000
C -0.88700 5.40600 0.97400
C 0.18100 5.01300 -2.27700
O 0.30300 4.69000 -3.50800
C 0.31000 6.41400 -1.83700
N -0.26500 -0.41300 -2.02900
C -0.27900 0.56900 -2.93700
C -0.19600 0.02400 -4.33200
C 0.12400 -1.53300 -4.18000
C 0.08600 -1.63200 -2.63500
C -1.45100 0.20500 -5.19700
C 1.37300 -2.07000 -4.92300
C 2.62600 -1.49000 -4.30600
N 0.15000 -2.14400 0.30300
C 0.17300 -3.13600 -0.68800
C 0.17300 -4.43800 0.00400
C 0.13300 -4.11100 1.35800
C 0.08300 -2.69500 1.50200
C 0.14900 -5.71500 -0.62300
C 0.09600 -4.62900 2.71600
O 0.20800 -5.74700 3.22100
C -0.25500 -3.42800 3.70100
C 0.71700 -3.48200 4.84800
O 1.93100 -3.25500 4.66900
O 0.03800 -3.55600 6.00300
C 0.94300 -3.58300 7.18300
H -1.85900 3.22000 2.49700
H -0.21800 2.45300 -3.47400
H 0.27600 -3.74700 -2.60500
H -1.55400 -0.94900 5.13200
H -1.58500 1.83100 4.66500
H -3.48400 -0.37700 3.96900
H -3.51100 1.02700 2.85800
H -3.85200 1.30100 4.54300
H 0.66900 1.09600 4.96600
H 1.13000 -0.63900 5.18900
H -0.84400 0.02600 7.12500
H 0.06200 1.47700 6.92100
H -1.34400 5.18600 1.93800
H -1.65100 5.96300 0.43200
H 0.00700 6.02000 1.08400
H -0.63500 6.74400 -1.40500
H 0.66500 6.97000 -2.70400
H 1.04800 6.46600 -1.03600
H 0.60800 0.50100 -4.89100
H -0.69200 -2.15600 -4.54700
H -1.26700 0.74000 -6.12900
H -2.20400 0.71400 -4.59600
H -1.96700 -0.72000 -5.45300
H 1.35600 -1.75900 -5.96700
H 1.45200 -3.15700 -4.90200
H 2.71400 -0.52200 -4.79800
H 3.48700 -2.12100 -4.52900
H 2.49500 -1.30300 -3.24000
H 0.86700 -6.33300 -0.08400
H 0.40400 -5.64200 -1.68000
H -0.89100 -5.99900 -0.46300
H -1.28300 -3.58100 4.02800
H 0.69800 -4.47800 7.75500
H 0.83300 -2.61900 7.68000
H 2.00000 -3.75400 6.97600
Mg 15.75633 1.42192 1.19501
C 14.86620 -1.39292 -0.84543
C 15.16391 3.39185 -1.52584
C 16.96209 3.86321 2.82402
C 17.34498 -0.81479 3.34420
N 15.10292 0.94432 -0.86344
C 14.73515 -0.15377 -1.50632
C 14.12110 0.09765 -2.90963
C 14.79649 1.52203 -3.21597
C 15.00595 2.00652 -1.78276
C 16.15582 1.41181 -3.88636
C 12.55601 0.20124 -2.86739
C 11.87016 0.13712 -4.23387
H 10.57610 -0.53233 -4.33241
N 15.57233 3.37636 0.90365
C 15.30773 4.00404 -0.26138
C 15.29510 5.44175 0.05005
C 15.73654 5.62018 1.46002
C 16.13611 4.26553 1.78458
C 14.81503 6.48058 -0.92144
C 15.80183 6.81509 2.36231
O 16.44203 6.78647 3.47233
C 15.17323 8.04746 1.86470
N 17.15418 1.54017 2.72941
C 17.46029 2.72037 3.29629
C 18.27497 2.52691 4.55297
C 18.24697 0.95487 4.84538
C 17.46113 0.48041 3.60331
C 19.72490 3.00612 4.48617
C 17.75164 0.50869 6.24831
C 16.28000 0.82001 6.39915
N 15.91131 -0.72621 1.36699
C 16.64854 -1.45411 2.32654
C 16.54016 -2.88282 1.96672
C 15.76030 -2.88517 0.80040
C 15.42444 -1.55054 0.44618
C 17.15925 -3.96353 2.65587
C 15.15374 -3.71245 -0.21764
O 15.02674 -4.92392 -0.39071
C 14.65380 -2.77445 -1.39941
C 13.24870 -3.17977 -1.75144
O 12.32341 -3.02704 -0.93467
O 13.19098 -3.47612 -3.06263
C 11.81462 -3.87334 -3.46223
H 15.22597 4.07320 -2.37484
H 17.31416 4.66085 3.48227
H 17.73018 -1.58200 4.01925
H 14.40954 -0.62123 -3.66712
H 14.11042 2.17907 -3.74414
H 16.49716 0.38866 -3.93928
H 16.83039 2.00496 -3.28289
H 16.13114 1.89035 -4.86958
H 12.27249 1.21678 -2.56234
H 12.14198 -0.54698 -2.21980
H 12.54802 -0.21935 -5.01897
H 11.61447 1.15386 -4.54186
H 14.71000 6.06788 -1.93240
H 15.61306 7.22524 -1.01360
H 13.90275 6.97968 -0.58779
H 15.63451 8.33304 0.92229
H 15.24431 8.76377 2.68551
H 14.11914 7.84010 1.64905
H 17.82542 3.04798 5.38933
H 19.24974 0.50887 4.77207
H 19.97589 3.74784 5.26779
H 19.90375 3.41639 3.50117
H 20.47467 2.21925 4.54833
H 18.26946 1.07096 7.02926
H 17.91402 -0.54509 6.44872
H 16.27960 1.87375 6.69364
H 15.83316 0.19474 7.16948
H 15.76149 0.74669 5.43612
H 16.41905 -4.74886 2.73235
H 17.51733 -3.65678 3.63641
H 17.98097 -4.18692 1.97020
H 15.34025 -2.90795 -2.23639
H 11.88987 -4.85999 -3.92971
H 11.43545 -3.04574 -4.09077
H 11.09963 -4.06796 -2.67143

