%nproc=24
%mem=175gb
#p cam-b3lyp/Def2SVP td=(nstates=5)

TDDFT excited states in gaussian

0 1
Mg 0.00000 0.00000 0.00000
C -0.21700 -2.21800 2.80100
C -1.25500 2.44200 2.02600
C -0.24500 1.85000 -2.56400
C 0.14600 -2.82400 -2.03700
N -0.61700 -0.00900 2.12600
C -0.59400 -0.90800 3.10500
C -0.93600 -0.30900 4.50200
C -1.77300 0.96400 4.03200
C -1.15500 1.16800 2.66000
C -3.26300 0.68500 3.86300
C 0.34500 0.11000 5.29900
C 0.12400 0.39700 6.78700
H 1.16800 0.03300 7.73300
N -0.18500 1.96100 -0.15200
C -0.70300 2.80000 0.77700
C -0.62000 4.15600 0.19300
C -0.18700 4.01500 -1.22500
C -0.21400 2.58300 -1.38000
C -0.88700 5.40600 0.97400
C 0.18100 5.01300 -2.27700
O 0.30300 4.69000 -3.50800
C 0.31000 6.41400 -1.83700
N -0.26500 -0.41300 -2.02900
C -0.27900 0.56900 -2.93700
C -0.19600 0.02400 -4.33200
C 0.12400 -1.53300 -4.18000
C 0.08600 -1.63200 -2.63500
C -1.45100 0.20500 -5.19700
C 1.37300 -2.07000 -4.92300
C 2.62600 -1.49000 -4.30600
N 0.15000 -2.14400 0.30300
C 0.17300 -3.13600 -0.68800
C 0.17300 -4.43800 0.00400
C 0.13300 -4.11100 1.35800
C 0.08300 -2.69500 1.50200
C 0.14900 -5.71500 -0.62300
C 0.09600 -4.62900 2.71600
O 0.20800 -5.74700 3.22100
C -0.25500 -3.42800 3.70100
C 0.71700 -3.48200 4.84800
O 1.93100 -3.25500 4.66900
O 0.03800 -3.55600 6.00300
C 0.94300 -3.58300 7.18300
H -1.85900 3.22000 2.49700
H -0.21800 2.45300 -3.47400
H 0.27600 -3.74700 -2.60500
H -1.55400 -0.94900 5.13200
H -1.58500 1.83100 4.66500
H -3.48400 -0.37700 3.96900
H -3.51100 1.02700 2.85800
H -3.85200 1.30100 4.54300
H 0.66900 1.09600 4.96600
H 1.13000 -0.63900 5.18900
H -0.84400 0.02600 7.12500
H 0.06200 1.47700 6.92100
H -1.34400 5.18600 1.93800
H -1.65100 5.96300 0.43200
H 0.00700 6.02000 1.08400
H -0.63500 6.74400 -1.40500
H 0.66500 6.97000 -2.70400
H 1.04800 6.46600 -1.03600
H 0.60800 0.50100 -4.89100
H -0.69200 -2.15600 -4.54700
H -1.26700 0.74000 -6.12900
H -2.20400 0.71400 -4.59600
H -1.96700 -0.72000 -5.45300
H 1.35600 -1.75900 -5.96700
H 1.45200 -3.15700 -4.90200
H 2.71400 -0.52200 -4.79800
H 3.48700 -2.12100 -4.52900
H 2.49500 -1.30300 -3.24000
H 0.86700 -6.33300 -0.08400
H 0.40400 -5.64200 -1.68000
H -0.89100 -5.99900 -0.46300
H -1.28300 -3.58100 4.02800
H 0.69800 -4.47800 7.75500
H 0.83300 -2.61900 7.68000
H 2.00000 -3.75400 6.97600
Mg 13.13285 1.18968 1.00378
C 15.36583 1.80812 3.74429
C 10.88262 0.03543 3.29262
C 11.32264 0.21711 -1.41379
C 15.90765 1.30391 -1.10172
N 13.22774 0.99756 3.20523
C 14.10361 1.32211 4.14431
C 13.56919 1.18976 5.59566
C 12.41196 0.10895 5.32818
C 12.12472 0.41668 3.86002
C 12.89563 -1.32812 5.42921
C 12.98083 2.53815 6.14127
C 12.72504 2.56449 7.64979
H 12.94323 3.81536 8.37102
N 11.20426 0.72478 0.94938
C 10.44149 0.29521 1.97648
C 9.10004 0.07178 1.41544
C 9.17382 0.24671 -0.06059
C 10.60532 0.38557 -0.23836
C 7.89453 -0.19332 2.26977
C 8.13001 0.27061 -1.13581
O 8.44036 0.19785 -2.37727
C 6.72931 0.28754 -0.68946
N 13.57422 0.60410 -0.94163
C 12.59566 0.27949 -1.80474
C 13.12774 0.16036 -3.21296
C 14.62776 0.71171 -3.15355
C 14.73781 0.98288 -1.63705
C 13.12655 -1.24774 -3.80765
C 14.99666 1.85547 -4.13762
C 14.24919 3.11619 -3.76716
N 15.22680 1.67819 1.21538
C 16.21834 1.63574 0.21082
C 17.50956 1.94107 0.86039
C 17.18036 2.11873 2.21263
C 15.78571 1.91709 2.39649
C 18.77781 1.97555 0.21505
C 17.69719 2.42055 3.52811
O 18.79069 2.76638 3.97351
C 16.56538 2.10849 4.59956
C 16.48007 3.27964 5.53959
O 16.10375 4.39220 5.13069
O 16.64608 2.84446 6.80190
C 16.55867 3.96826 7.77209
H 10.19525 -0.55584 3.89826
H 10.72722 -0.01045 -2.30102
H 16.80452 1.45496 -1.70627
H 14.28474 0.79943 6.30939
H 11.53525 0.30974 5.93844
H 13.96743 -1.38506 5.54819
H 12.59136 -1.80641 4.50741
H 12.36295 -1.84976 6.22951
H 11.95297 2.65478 5.77435
H 13.60574 3.36548 5.86622
H 13.21844 1.73208 8.16612
H 11.65983 2.39439 7.82415
H 8.17774 -0.42928 3.30297
H 7.43480 -1.11500 1.89691
H 7.15916 0.61269 2.22232
H 6.53540 -0.58859 -0.07524
H 6.13418 0.39394 -1.59852
H 6.57736 1.16212 -0.04710
H 12.55434 0.77468 -3.89628
H 15.36052 -0.07493 -3.38611
H 12.56124 -1.32058 -4.75591
H 12.72251 -1.92913 -3.07077
H 14.11200 -1.66994 -3.99693
H 14.68521 1.59691 -5.15266
H 16.05961 2.06989 -4.17170
H 13.27366 2.97309 -4.24145
H 14.75644 3.99304 -4.16451
H 14.08445 3.17242 -2.68487
H 19.29311 2.85079 0.58779
H 18.67240 2.00621 -0.86741
H 19.19796 1.02694 0.55986
H 16.84672 1.18943 5.11506
H 17.48164 3.95531 8.36000
H 15.60998 3.81643 8.32044
H 16.57541 4.97621 7.37434

