%nproc=24
%mem=175gb
#p cam-b3lyp/Def2SVP td=(nstates=5)

TDDFT excited states in gaussian

0 1
Mg 8.93384 0.79692 0.68624
C 6.57413 2.26822 2.95475
C 11.19440 0.84790 3.24004
C 11.15998 -0.07689 -1.39898
C 6.90386 1.90103 -1.92255
N 8.78459 1.49193 2.78075
C 7.81970 1.97570 3.54840
C 8.18661 2.08094 5.05302
C 9.78379 2.16024 4.90607
C 9.94382 1.42447 3.57727
C 10.30252 3.57803 4.73249
C 7.74680 0.81277 5.86562
C 7.79352 0.97542 7.38651
H 6.77542 0.30421 8.18989
N 10.72210 -0.01196 0.98017
C 11.49000 0.09076 2.08518
C 12.71781 -0.66530 1.79359
C 12.68266 -1.08454 0.36610
C 11.50419 -0.37407 -0.08835
C 13.74034 -0.99265 2.84273
C 13.57092 -1.96728 -0.45728
O 13.48731 -2.00206 -1.73581
C 14.60384 -2.71935 0.27001
N 9.13352 1.07833 -1.36394
C 10.17110 0.55006 -2.03645
C 9.95998 0.64654 -3.52860
C 8.44849 1.13347 -3.71804
C 8.05789 1.32851 -2.23656
C 10.89761 1.59681 -4.27306
C 7.53320 0.25503 -4.61429
C 7.28710 -1.07995 -3.94897
N 6.98884 1.72163 0.51326
C 6.33821 2.12406 -0.67368
C 5.08995 2.80677 -0.27594
C 5.11243 2.77422 1.12653
C 6.30125 2.13549 1.57176
C 4.14497 3.39567 -1.16268
C 4.40591 3.14440 2.33173
O 3.30338 3.63211 2.57729
C 5.38154 2.94568 3.57070
C 4.62869 2.20288 4.64027
O 4.25805 1.03047 4.45403
O 4.66076 2.91829 5.77936
C 3.93656 2.21739 6.87302
H 12.04306 1.02629 3.90097
H 11.84246 -0.45587 -2.16323
H 6.16933 2.18700 -2.67844
H 7.81444 2.96860 5.55033
H 10.28142 1.61688 5.70513
H 9.49866 4.28993 4.61781
H 10.92025 3.55856 3.84419
H 10.97047 3.83881 5.55843
H 8.50134 0.02600 5.73754
H 6.76881 0.48900 5.56670
H 7.88821 2.02628 7.68595
H 8.70858 0.50749 7.75760
H 13.57718 -0.41140 3.75866
H 14.70759 -0.64173 2.46702
H 13.80753 -2.06360 3.04577
H 15.24883 -2.02447 0.80255
H 15.07847 -3.35997 -0.47578
H 14.11520 -3.34015 1.02925
H 10.07891 -0.32161 -3.99940
H 8.39615 2.12558 -4.19007
H 11.46516 1.10322 -5.08443
H 11.57198 2.04338 -3.55450
H 10.41726 2.46941 -4.71241
H 8.02692 0.04143 -5.56549
H 6.57954 0.71874 -4.84344
H 8.17373 -1.65946 -4.22307
H 6.37996 -1.53950 -4.33620
H 7.28267 -0.98074 -2.85728
H 3.16390 3.11372 -0.80420
H 4.30383 3.06785 -2.18790
H 4.38455 4.45388 -1.02830
H 5.69470 3.93610 3.90323
H 3.17837 2.91082 7.24983
H 4.71667 1.88847 7.58505
H 3.32656 1.36324 6.60323

