%nproc=24
%mem=175gb
#p cam-b3lyp/Def2SVP td=(nstates=5)

TDDFT excited states in gaussian

0 1
Mg 0.00000 0.00000 0.00000
C -0.21700 -2.21800 2.80100
C -1.25500 2.44200 2.02600
C -0.24500 1.85000 -2.56400
C 0.14600 -2.82400 -2.03700
N -0.61700 -0.00900 2.12600
C -0.59400 -0.90800 3.10500
C -0.93600 -0.30900 4.50200
C -1.77300 0.96400 4.03200
C -1.15500 1.16800 2.66000
C -3.26300 0.68500 3.86300
C 0.34500 0.11000 5.29900
C 0.12400 0.39700 6.78700
H 1.16800 0.03300 7.73300
N -0.18500 1.96100 -0.15200
C -0.70300 2.80000 0.77700
C -0.62000 4.15600 0.19300
C -0.18700 4.01500 -1.22500
C -0.21400 2.58300 -1.38000
C -0.88700 5.40600 0.97400
C 0.18100 5.01300 -2.27700
O 0.30300 4.69000 -3.50800
C 0.31000 6.41400 -1.83700
N -0.26500 -0.41300 -2.02900
C -0.27900 0.56900 -2.93700
C -0.19600 0.02400 -4.33200
C 0.12400 -1.53300 -4.18000
C 0.08600 -1.63200 -2.63500
C -1.45100 0.20500 -5.19700
C 1.37300 -2.07000 -4.92300
C 2.62600 -1.49000 -4.30600
N 0.15000 -2.14400 0.30300
C 0.17300 -3.13600 -0.68800
C 0.17300 -4.43800 0.00400
C 0.13300 -4.11100 1.35800
C 0.08300 -2.69500 1.50200
C 0.14900 -5.71500 -0.62300
C 0.09600 -4.62900 2.71600
O 0.20800 -5.74700 3.22100
C -0.25500 -3.42800 3.70100
C 0.71700 -3.48200 4.84800
O 1.93100 -3.25500 4.66900
O 0.03800 -3.55600 6.00300
C 0.94300 -3.58300 7.18300
H -1.85900 3.22000 2.49700
H -0.21800 2.45300 -3.47400
H 0.27600 -3.74700 -2.60500
H -1.55400 -0.94900 5.13200
H -1.58500 1.83100 4.66500
H -3.48400 -0.37700 3.96900
H -3.51100 1.02700 2.85800
H -3.85200 1.30100 4.54300
H 0.66900 1.09600 4.96600
H 1.13000 -0.63900 5.18900
H -0.84400 0.02600 7.12500
H 0.06200 1.47700 6.92100
H -1.34400 5.18600 1.93800
H -1.65100 5.96300 0.43200
H 0.00700 6.02000 1.08400
H -0.63500 6.74400 -1.40500
H 0.66500 6.97000 -2.70400
H 1.04800 6.46600 -1.03600
H 0.60800 0.50100 -4.89100
H -0.69200 -2.15600 -4.54700
H -1.26700 0.74000 -6.12900
H -2.20400 0.71400 -4.59600
H -1.96700 -0.72000 -5.45300
H 1.35600 -1.75900 -5.96700
H 1.45200 -3.15700 -4.90200
H 2.71400 -0.52200 -4.79800
H 3.48700 -2.12100 -4.52900
H 2.49500 -1.30300 -3.24000
H 0.86700 -6.33300 -0.08400
H 0.40400 -5.64200 -1.68000
H -0.89100 -5.99900 -0.46300
H -1.28300 -3.58100 4.02800
H 0.69800 -4.47800 7.75500
H 0.83300 -2.61900 7.68000
H 2.00000 -3.75400 6.97600
Mg 15.76487 1.41202 1.20514
C 13.57942 3.14564 3.46290
C 17.98088 1.15343 3.78526
C 17.89043 0.28611 -0.86409
C 13.92325 2.78808 -1.41414
N 15.67706 2.09958 3.30557
C 14.77069 2.69313 4.06751
C 15.12850 2.73659 5.57736
C 16.72476 2.61607 5.44977
C 16.80831 1.87918 4.11460
C 17.41950 3.95911 5.29837
C 14.52260 1.52575 6.37032
C 14.56977 1.66624 7.89341
H 13.46523 1.12034 8.67728
N 17.43356 0.38205 1.51043
C 18.19398 0.37659 2.62533
C 19.32086 -0.52480 2.33932
C 19.25177 -0.92220 0.90684
C 18.17772 -0.06487 0.44695
C 20.28063 -0.98834 3.39639
C 20.03276 -1.90136 0.08374
O 19.96192 -1.91275 -1.19598
C 20.95369 -2.78437 0.81427
N 16.02467 1.68634 -0.83926
C 16.99634 1.03858 -1.50574
C 16.81822 1.17553 -2.99902
C 15.38235 1.85032 -3.20033
C 15.00027 2.07826 -1.72132
C 17.87720 2.00778 -3.72173
C 14.37568 1.10270 -4.11704
C 13.95545 -0.19729 -3.46987
N 13.95367 2.57540 1.02029
C 13.37403 3.06807 -0.16941
C 12.21629 3.89821 0.22166
C 12.21644 3.84926 1.62384
C 13.30988 3.06189 2.07543
C 11.36417 4.60987 -0.66915
C 11.54650 4.29335 2.82494
O 10.51082 4.91324 3.06332
C 12.47344 3.96143 4.07274
C 11.61962 3.30857 5.12502
O 11.10721 2.19390 4.92114
O 11.72654 4.00301 6.27249
C 10.90609 3.38788 7.34965
H 18.83664 1.21727 4.45793
H 18.52975 -0.16804 -1.62469
H 13.24021 3.17150 -2.17514
H 14.86429 3.65902 6.08045
H 17.13994 2.00665 6.24826
H 16.71288 4.76745 5.18255
H 18.04130 3.87097 4.41709
H 18.10420 4.12576 6.13488
H 15.17403 0.65174 6.24199
H 13.51565 1.33037 6.05647
H 14.79172 2.69388 8.20588
H 15.41403 1.08343 8.26967
H 20.17993 -0.40027 4.31695
H 21.28903 -0.75801 3.03589
H 20.21028 -2.06119 3.58796
H 21.67386 -2.18130 1.36211
H 21.35374 -3.47214 0.06675
H 20.38127 -3.34633 1.56070
H 16.82078 0.20481 -3.47943
H 15.46100 2.84575 -3.66158
H 18.38873 1.45484 -4.53208
H 18.59296 2.35900 -2.99039
H 17.51584 2.93811 -4.15661
H 14.85090 0.83817 -5.06485
H 13.49078 1.68477 -4.35187
H 14.76581 -0.88085 -3.74032
H 13.00288 -0.53541 -3.87276
H 13.94945 -0.10908 -2.37724
H 10.35095 4.44987 -0.32525
H 11.49384 4.27482 -1.69614
H 11.73290 5.62823 -0.51996
H 12.90411 4.90134 4.42013
H 10.23612 4.16730 7.72557
H 11.62952 2.95655 8.06683
H 10.19725 2.61983 7.06312

