%nproc=24
%mem=175gb
#p cam-b3lyp/Def2SVP td=(nstates=5)

TDDFT excited states in gaussian

0 1
Mg 10.51946 0.95103 0.80238
C 11.27237 -1.19594 3.57776
C 10.18412 3.49288 3.05208
C 9.41582 2.76168 -1.55791
C 9.79689 -1.91686 -1.04121
N 10.72704 1.01583 3.00351
C 11.07660 0.15185 3.94462
C 11.30306 0.78259 5.34477
C 10.38985 2.09184 5.16927
C 10.46124 2.23787 3.65064
C 8.93817 1.86983 5.56004
C 12.80556 1.15954 5.59461
C 13.15210 1.49217 7.04755
H 14.46414 1.10277 7.55684
N 10.36593 2.92466 0.66178
C 10.26179 3.80716 1.67748
C 10.15469 5.13299 1.04911
C 10.03834 4.94648 -0.42276
C 9.91183 3.50473 -0.49659
C 10.24848 6.41269 1.82821
C 10.02810 5.90777 -1.57255
O 9.67746 5.54466 -2.75070
C 10.35065 7.30760 -1.25962
N 9.51996 0.50758 -0.96586
C 9.20081 1.47687 -1.84138
C 8.73890 0.89425 -3.15576
C 9.04549 -0.67256 -3.06258
C 9.57260 -0.74148 -1.61248
C 7.26335 1.10456 -3.49472
C 9.91285 -1.28849 -4.19439
C 11.32317 -0.74989 -4.11499
N 10.69874 -1.18036 1.10747
C 10.31295 -2.20511 0.21576
C 10.52390 -3.49066 0.91239
C 10.99984 -3.12082 2.17935
C 11.06072 -1.70414 2.27327
C 10.23535 -4.78041 0.38380
C 11.45450 -3.60644 3.46237
O 11.69830 -4.71614 3.93447
C 11.53134 -2.37880 4.46904
C 12.85509 -2.44357 5.18038
O 13.91782 -2.28863 4.55331
O 12.64120 -2.46010 6.50867
C 13.92498 -2.51292 7.25762
H 9.83288 4.30520 3.68899
H 9.12525 3.33609 -2.44058
H 9.68812 -2.85918 -1.58238
H 10.94317 0.18679 6.17500
H 10.83761 2.95397 5.65671
H 8.73427 0.83243 5.77997
H 8.35168 2.19923 4.71235
H 8.66596 2.52907 6.38928
H 13.01428 2.12937 5.12492
H 13.45704 0.38670 5.23557
H 12.36230 1.17987 7.74155
H 13.18932 2.57891 7.15537
H 10.16651 6.23354 2.90737
H 9.35883 7.00260 1.58246
H 11.13834 6.99410 1.57768
H 9.64618 7.68428 -0.52185
H 10.37977 7.82287 -2.22166
H 11.34217 7.34262 -0.79458
H 9.29898 1.31336 -3.98267
H 8.12280 -1.27065 -3.09031
H 7.10665 1.61921 -4.46150
H 6.80396 1.66125 -2.68875
H 6.66179 0.19757 -3.52127
H 9.52322 -0.99523 -5.17232
H 9.94504 -2.37268 -4.17248
H 11.25177 0.20718 -4.64035
H 12.01870 -1.42251 -4.61285
H 11.60500 -0.53615 -3.07743
H 11.07109 -5.41695 0.64234
H 10.08078 -4.74348 -0.69254
H 9.31270 -5.01036 0.92334
H 10.69116 -2.46767 5.15880
H 13.87456 -3.38494 7.91696
H 14.03082 -1.52269 7.73927
H 14.82572 -2.72583 6.69389

