%nproc=24
%mem=175gb
#p cam-b3lyp/Def2SVP td=(nstates=5)

TDDFT excited states in gaussian

0 1
Mg 0.00000 0.00000 0.00000
C -0.21700 -2.21800 2.80100
C -1.25500 2.44200 2.02600
C -0.24500 1.85000 -2.56400
C 0.14600 -2.82400 -2.03700
N -0.61700 -0.00900 2.12600
C -0.59400 -0.90800 3.10500
C -0.93600 -0.30900 4.50200
C -1.77300 0.96400 4.03200
C -1.15500 1.16800 2.66000
C -3.26300 0.68500 3.86300
C 0.34500 0.11000 5.29900
C 0.12400 0.39700 6.78700
H 1.16800 0.03300 7.73300
N -0.18500 1.96100 -0.15200
C -0.70300 2.80000 0.77700
C -0.62000 4.15600 0.19300
C -0.18700 4.01500 -1.22500
C -0.21400 2.58300 -1.38000
C -0.88700 5.40600 0.97400
C 0.18100 5.01300 -2.27700
O 0.30300 4.69000 -3.50800
C 0.31000 6.41400 -1.83700
N -0.26500 -0.41300 -2.02900
C -0.27900 0.56900 -2.93700
C -0.19600 0.02400 -4.33200
C 0.12400 -1.53300 -4.18000
C 0.08600 -1.63200 -2.63500
C -1.45100 0.20500 -5.19700
C 1.37300 -2.07000 -4.92300
C 2.62600 -1.49000 -4.30600
N 0.15000 -2.14400 0.30300
C 0.17300 -3.13600 -0.68800
C 0.17300 -4.43800 0.00400
C 0.13300 -4.11100 1.35800
C 0.08300 -2.69500 1.50200
C 0.14900 -5.71500 -0.62300
C 0.09600 -4.62900 2.71600
O 0.20800 -5.74700 3.22100
C -0.25500 -3.42800 3.70100
C 0.71700 -3.48200 4.84800
O 1.93100 -3.25500 4.66900
O 0.03800 -3.55600 6.00300
C 0.94300 -3.58300 7.18300
H -1.85900 3.22000 2.49700
H -0.21800 2.45300 -3.47400
H 0.27600 -3.74700 -2.60500
H -1.55400 -0.94900 5.13200
H -1.58500 1.83100 4.66500
H -3.48400 -0.37700 3.96900
H -3.51100 1.02700 2.85800
H -3.85200 1.30100 4.54300
H 0.66900 1.09600 4.96600
H 1.13000 -0.63900 5.18900
H -0.84400 0.02600 7.12500
H 0.06200 1.47700 6.92100
H -1.34400 5.18600 1.93800
H -1.65100 5.96300 0.43200
H 0.00700 6.02000 1.08400
H -0.63500 6.74400 -1.40500
H 0.66500 6.97000 -2.70400
H 1.04800 6.46600 -1.03600
H 0.60800 0.50100 -4.89100
H -0.69200 -2.15600 -4.54700
H -1.26700 0.74000 -6.12900
H -2.20400 0.71400 -4.59600
H -1.96700 -0.72000 -5.45300
H 1.35600 -1.75900 -5.96700
H 1.45200 -3.15700 -4.90200
H 2.71400 -0.52200 -4.79800
H 3.48700 -2.12100 -4.52900
H 2.49500 -1.30300 -3.24000
H 0.86700 -6.33300 -0.08400
H 0.40400 -5.64200 -1.68000
H -0.89100 -5.99900 -0.46300
H -1.28300 -3.58100 4.02800
H 0.69800 -4.47800 7.75500
H 0.83300 -2.61900 7.68000
H 2.00000 -3.75400 6.97600
Mg 31.52551 2.83457 2.40202
C 31.07581 5.54402 4.71195
C 32.59450 0.95816 5.04227
C 32.35721 0.57722 0.33319
C 31.52645 5.20000 -0.15736
N 31.75980 3.30229 4.55112
C 31.49927 4.34589 5.32401
C 31.62700 4.06713 6.84570
C 32.63867 2.82182 6.77795
C 32.29095 2.29990 5.38534
C 34.10140 3.23382 6.78213
C 30.25809 3.66040 7.49583
C 30.24349 3.67447 9.02597
H 29.01871 4.08577 9.70659
N 31.88400 0.90311 2.68397
C 32.28887 0.30886 3.82600
C 32.42958 -1.12051 3.50778
C 32.23391 -1.29645 2.04304
C 32.17000 0.08737 1.61753
C 32.64327 -2.17090 4.55870
C 32.13512 -2.50929 1.16813
O 32.20357 -2.42562 -0.10904
C 32.04973 -3.80703 1.85374
N 32.10112 2.89489 0.40518
C 32.35743 1.76363 -0.27489
C 32.48138 2.03345 -1.75550
C 32.01338 3.54941 -1.95660
C 31.77435 3.93830 -0.48113
C 33.87704 1.84873 -2.35080
C 30.87483 3.80434 -2.98196
C 29.58183 3.20561 -2.47692
N 31.15509 4.95742 2.24594
C 31.23429 5.75383 1.08252
C 31.01059 7.15396 1.49730
C 30.83826 7.07706 2.88758
C 30.96696 5.72700 3.31216
C 31.03409 8.28958 0.63944
C 30.58731 7.83234 4.09392
O 30.30897 9.00467 4.34275
C 30.85557 6.88974 5.34530
C 29.69763 7.03651 6.29406
O 28.55950 6.65783 5.96562
O 30.16252 7.39605 7.50442
C 29.05225 7.54336 8.48289
H 33.15776 0.35513 5.75501
H 32.53701 -0.17616 -0.43724
H 31.41409 5.98429 -0.90899
H 32.06766 4.87336 7.41979
H 32.40095 2.07820 7.53418
H 34.21847 4.30495 6.71055
H 34.54676 2.74641 5.92473
H 34.60684 2.82085 7.65981
H 30.07960 2.59243 7.31605
H 29.46138 4.27321 7.12121
H 31.11010 4.20284 9.44161
H 30.35841 2.64834 9.38355
H 32.91175 -1.72501 5.52436
H 33.53216 -2.74007 4.26581
H 31.79783 -2.85655 4.64696
H 32.92432 -3.93958 2.48618
H 31.89576 -4.54510 1.06416
H 31.17921 -3.79460 2.51906
H 31.82532 1.38491 -2.32303
H 32.83461 4.18457 -2.31991
H 33.90298 1.12299 -3.18549
H 34.54789 1.54209 -1.55930
H 34.34887 2.76042 -2.71329
H 31.09884 3.30596 -3.92831
H 30.71790 4.85530 -3.20072
H 29.66368 2.15563 -2.77345
H 28.72722 3.68415 -2.95091
H 29.53511 3.23627 -1.38214
H 30.19457 8.91073 0.92211
H 30.97939 7.99825 -0.40741
H 32.00982 8.70937 0.89826
H 31.79717 7.20464 5.79675
H 29.12527 8.55275 8.89940
H 29.16161 6.69825 9.18829
H 28.04009 7.54709 8.09562

