%nproc=24
%mem=175gb
#p cam-b3lyp/Def2SVP td=(nstates=5)

TDDFT excited states in gaussian

0 1
Mg 0.00000 0.00000 0.00000
C -0.21700 -2.21800 2.80100
C -1.25500 2.44200 2.02600
C -0.24500 1.85000 -2.56400
C 0.14600 -2.82400 -2.03700
N -0.61700 -0.00900 2.12600
C -0.59400 -0.90800 3.10500
C -0.93600 -0.30900 4.50200
C -1.77300 0.96400 4.03200
C -1.15500 1.16800 2.66000
C -3.26300 0.68500 3.86300
C 0.34500 0.11000 5.29900
C 0.12400 0.39700 6.78700
H 1.16800 0.03300 7.73300
N -0.18500 1.96100 -0.15200
C -0.70300 2.80000 0.77700
C -0.62000 4.15600 0.19300
C -0.18700 4.01500 -1.22500
C -0.21400 2.58300 -1.38000
C -0.88700 5.40600 0.97400
C 0.18100 5.01300 -2.27700
O 0.30300 4.69000 -3.50800
C 0.31000 6.41400 -1.83700
N -0.26500 -0.41300 -2.02900
C -0.27900 0.56900 -2.93700
C -0.19600 0.02400 -4.33200
C 0.12400 -1.53300 -4.18000
C 0.08600 -1.63200 -2.63500
C -1.45100 0.20500 -5.19700
C 1.37300 -2.07000 -4.92300
C 2.62600 -1.49000 -4.30600
N 0.15000 -2.14400 0.30300
C 0.17300 -3.13600 -0.68800
C 0.17300 -4.43800 0.00400
C 0.13300 -4.11100 1.35800
C 0.08300 -2.69500 1.50200
C 0.14900 -5.71500 -0.62300
C 0.09600 -4.62900 2.71600
O 0.20800 -5.74700 3.22100
C -0.25500 -3.42800 3.70100
C 0.71700 -3.48200 4.84800
O 1.93100 -3.25500 4.66900
O 0.03800 -3.55600 6.00300
C 0.94300 -3.58300 7.18300
H -1.85900 3.22000 2.49700
H -0.21800 2.45300 -3.47400
H 0.27600 -3.74700 -2.60500
H -1.55400 -0.94900 5.13200
H -1.58500 1.83100 4.66500
H -3.48400 -0.37700 3.96900
H -3.51100 1.02700 2.85800
H -3.85200 1.30100 4.54300
H 0.66900 1.09600 4.96600
H 1.13000 -0.63900 5.18900
H -0.84400 0.02600 7.12500
H 0.06200 1.47700 6.92100
H -1.34400 5.18600 1.93800
H -1.65100 5.96300 0.43200
H 0.00700 6.02000 1.08400
H -0.63500 6.74400 -1.40500
H 0.66500 6.97000 -2.70400
H 1.04800 6.46600 -1.03600
H 0.60800 0.50100 -4.89100
H -0.69200 -2.15600 -4.54700
H -1.26700 0.74000 -6.12900
H -2.20400 0.71400 -4.59600
H -1.96700 -0.72000 -5.45300
H 1.35600 -1.75900 -5.96700
H 1.45200 -3.15700 -4.90200
H 2.71400 -0.52200 -4.79800
H 3.48700 -2.12100 -4.52900
H 2.49500 -1.30300 -3.24000
H 0.86700 -6.33300 -0.08400
H 0.40400 -5.64200 -1.68000
H -0.89100 -5.99900 -0.46300
H -1.28300 -3.58100 4.02800
H 0.69800 -4.47800 7.75500
H 0.83300 -2.61900 7.68000
H 2.00000 -3.75400 6.97600
Mg 8.92911 0.80653 0.66966
C 10.10187 -1.84782 -1.44176
C 10.28856 2.98889 -1.57172
C 8.30915 3.14573 2.72179
C 8.69047 -1.53237 3.24226
N 10.02733 0.49014 -1.22403
C 10.35988 -0.56092 -1.95822
C 10.93243 -0.21230 -3.35830
C 11.46260 1.26956 -3.03913
C 10.51470 1.62741 -1.89627
C 12.88545 1.29790 -2.50618
C 9.82557 -0.19926 -4.47038
C 10.35612 -0.17172 -5.90548
H 9.61803 -0.89893 -6.93449
N 8.80711 2.76668 0.38413
C 9.40472 3.48601 -0.58885
C 9.01740 4.88505 -0.35046
C 8.27681 4.95361 0.93855
C 8.45764 3.59837 1.41886
C 9.28432 5.98297 -1.33876
C 7.54004 6.05982 1.63113
O 7.17418 5.96178 2.85562
C 7.34178 7.29726 0.86242
N 8.75567 0.85606 2.74084
C 8.42750 1.99252 3.38013
C 8.09163 1.72637 4.82815
C 8.02790 0.13460 4.96883
C 8.44388 -0.26298 3.53556
C 9.07590 2.28864 5.85355
C 6.72129 -0.46850 5.55340
C 5.57721 -0.25408 4.58878
N 9.13851 -1.33647 0.84780
C 9.02217 -2.11008 2.02341
C 9.36127 -3.50225 1.66381
C 9.67618 -3.43735 0.29812
C 9.56233 -2.09573 -0.15638
C 9.39808 -4.60753 2.55998
C 10.08932 -4.19694 -0.85992
O 10.25725 -5.39180 -1.10039
C 10.50589 -3.18048 -2.00869
C 9.84787 -3.62733 -3.28535
O 8.60979 -3.60339 -3.40027
O 10.79057 -3.80135 -4.22949
C 10.18574 -4.23407 -5.51742
H 10.87372 3.74969 -2.08909
H 7.98675 3.89583 3.44766
H 8.54496 -2.33754 3.96559
H 11.75432 -0.83957 -3.68202
H 11.30859 1.93483 -3.88473
H 13.26500 0.30461 -2.31790
H 12.84402 1.86760 -1.58707
H 13.53044 1.86500 -3.18346
H 9.30342 0.76585 -4.44455
H 9.15398 -1.02685 -4.34922
H 11.42451 -0.41475 -5.95469
H 10.29716 0.85397 -6.27763
H 9.98958 5.66237 -2.11544
H 9.81504 6.77570 -0.80044
H 8.36845 6.39751 -1.76539
H 8.30847 7.69539 0.56331
H 6.71895 7.93574 1.49194
H 6.80273 7.05360 -0.05990
H 7.12396 2.14072 5.08315
H 8.81099 -0.24675 5.64053
H 8.60122 2.96595 6.58841
H 9.86798 2.79922 5.32209
H 9.62488 1.54178 6.42453
H 6.44781 0.04516 6.47835
H 6.79867 -1.52598 5.78306
H 5.25134 0.76555 4.81517
H 4.78124 -0.97285 4.77272
H 5.93019 -0.26456 3.55102
H 8.92242 -5.43603 2.05222
H 8.89838 -4.37548 3.49819
H 10.47814 -4.71977 2.68698
H 11.59401 -3.19652 -2.08158
H 10.68080 -5.16658 -5.80553
H 10.29522 -3.37293 -6.20313
H 9.14659 -4.54141 -5.50490

