%nproc=24
%mem=175gb
#p cam-b3lyp/Def2SVP td=(nstates=5)

TDDFT excited states in gaussian

0 1
Mg 0.00000 0.00000 0.00000
C -0.21700 -2.21800 2.80100
C -1.25500 2.44200 2.02600
C -0.24500 1.85000 -2.56400
C 0.14600 -2.82400 -2.03700
N -0.61700 -0.00900 2.12600
C -0.59400 -0.90800 3.10500
C -0.93600 -0.30900 4.50200
C -1.77300 0.96400 4.03200
C -1.15500 1.16800 2.66000
C -3.26300 0.68500 3.86300
C 0.34500 0.11000 5.29900
C 0.12400 0.39700 6.78700
H 1.16800 0.03300 7.73300
N -0.18500 1.96100 -0.15200
C -0.70300 2.80000 0.77700
C -0.62000 4.15600 0.19300
C -0.18700 4.01500 -1.22500
C -0.21400 2.58300 -1.38000
C -0.88700 5.40600 0.97400
C 0.18100 5.01300 -2.27700
O 0.30300 4.69000 -3.50800
C 0.31000 6.41400 -1.83700
N -0.26500 -0.41300 -2.02900
C -0.27900 0.56900 -2.93700
C -0.19600 0.02400 -4.33200
C 0.12400 -1.53300 -4.18000
C 0.08600 -1.63200 -2.63500
C -1.45100 0.20500 -5.19700
C 1.37300 -2.07000 -4.92300
C 2.62600 -1.49000 -4.30600
N 0.15000 -2.14400 0.30300
C 0.17300 -3.13600 -0.68800
C 0.17300 -4.43800 0.00400
C 0.13300 -4.11100 1.35800
C 0.08300 -2.69500 1.50200
C 0.14900 -5.71500 -0.62300
C 0.09600 -4.62900 2.71600
O 0.20800 -5.74700 3.22100
C -0.25500 -3.42800 3.70100
C 0.71700 -3.48200 4.84800
O 1.93100 -3.25500 4.66900
O 0.03800 -3.55600 6.00300
C 0.94300 -3.58300 7.18300
H -1.85900 3.22000 2.49700
H -0.21800 2.45300 -3.47400
H 0.27600 -3.74700 -2.60500
H -1.55400 -0.94900 5.13200
H -1.58500 1.83100 4.66500
H -3.48400 -0.37700 3.96900
H -3.51100 1.02700 2.85800
H -3.85200 1.30100 4.54300
H 0.66900 1.09600 4.96600
H 1.13000 -0.63900 5.18900
H -0.84400 0.02600 7.12500
H 0.06200 1.47700 6.92100
H -1.34400 5.18600 1.93800
H -1.65100 5.96300 0.43200
H 0.00700 6.02000 1.08400
H -0.63500 6.74400 -1.40500
H 0.66500 6.97000 -2.70400
H 1.04800 6.46600 -1.03600
H 0.60800 0.50100 -4.89100
H -0.69200 -2.15600 -4.54700
H -1.26700 0.74000 -6.12900
H -2.20400 0.71400 -4.59600
H -1.96700 -0.72000 -5.45300
H 1.35600 -1.75900 -5.96700
H 1.45200 -3.15700 -4.90200
H 2.71400 -0.52200 -4.79800
H 3.48700 -2.12100 -4.52900
H 2.49500 -1.30300 -3.24000
H 0.86700 -6.33300 -0.08400
H 0.40400 -5.64200 -1.68000
H -0.89100 -5.99900 -0.46300
H -1.28300 -3.58100 4.02800
H 0.69800 -4.47800 7.75500
H 0.83300 -2.61900 7.68000
H 2.00000 -3.75400 6.97600
Mg 15.75778 1.41841 1.20392
C 16.38981 3.99736 3.61818
C 15.79458 -0.80489 3.79046
C 15.65134 -0.92152 -0.93636
C 16.89185 3.62462 -1.24399
N 16.06204 1.68344 3.37865
C 16.23236 2.71720 4.18900
C 16.15379 2.36988 5.69988
C 16.54145 0.81411 5.60945
C 16.07416 0.52824 4.18376
C 18.03828 0.56172 5.68113
C 14.71157 2.56942 6.28485
C 14.62857 2.54732 7.81272
H 13.66313 3.42384 8.47007
N 15.24596 -0.48796 1.40970
C 15.30238 -1.22860 2.53644
C 14.83713 -2.57206 2.15853
C 14.65802 -2.60822 0.68160
C 15.21013 -1.31878 0.31746
C 14.53124 -3.64089 3.16723
C 14.09606 -3.63876 -0.25027
O 14.25678 -3.55810 -1.51932
C 13.43277 -4.79363 0.37249
N 16.40248 1.28068 -0.76781
C 16.18645 0.16701 -1.48960
C 16.48660 0.39766 -2.95148
C 16.71868 1.97308 -3.09905
C 16.59507 2.38707 -1.61624
C 17.69863 -0.34934 -3.50767
C 15.84913 2.71723 -4.14919
C 14.40100 2.71471 -3.71526
N 16.33403 3.49948 1.13210
C 16.80207 4.21669 0.00932
C 17.17511 5.56656 0.47954
C 16.91781 5.53336 1.85837
C 16.43865 4.24678 2.22528
C 17.72202 6.60596 -0.32462
C 16.95264 6.29081 3.08872
O 17.18761 7.46258 3.38108
C 16.73200 5.29073 4.30426
C 15.70112 5.89242 5.21956
O 14.52784 6.04502 4.83648
O 16.21422 5.98639 6.45982
C 15.22517 6.56742 7.40639
H 16.01166 -1.60959 4.49347
H 15.53142 -1.65857 -1.73377
H 17.16125 4.40162 -1.96256
H 16.86657 2.89499 6.32436
H 15.97279 0.22324 6.32279
H 18.60336 1.48176 5.66218
H 18.27580 -0.04600 4.81782
H 18.27582 -0.05093 6.55552
H 14.10479 1.68520 6.05092
H 14.27094 3.47358 5.91206
H 15.61587 2.64364 8.28059
H 14.27810 1.56120 8.12698
H 14.91573 -3.37844 4.16055
H 15.10680 -4.52706 2.87862
H 13.47119 -3.90191 3.19602
H 14.13534 -5.30389 1.02708
H 13.01873 -5.37378 -0.45447
H 12.61849 -4.42848 1.00828
H 15.64595 0.10689 -3.56944
H 17.74900 2.20621 -3.40556
H 17.45463 -0.99398 -4.37311
H 18.13514 -0.93421 -2.70897
H 18.53084 0.28290 -3.81245
H 15.88638 2.19650 -5.10920
H 16.16532 3.74000 -4.32513
H 14.04291 1.73871 -4.05626
H 13.85585 3.52490 -4.19529
H 14.31759 2.73300 -2.62239
H 17.21371 7.51829 -0.04220
H 17.60051 6.39408 -1.38486
H 18.76950 6.56174 -0.01460
H 17.69446 5.16112 4.80070
H 15.70001 7.43738 7.87050
H 14.92948 5.73796 8.07595
H 14.33135 7.01342 6.98615

