%nproc=24
%mem=175gb
#p cam-b3lyp/Def2SVP td=(nstates=5)

TDDFT excited states in gaussian

0 1
Mg 0.00000 0.00000 0.00000
C -0.21700 -2.21800 2.80100
C -1.25500 2.44200 2.02600
C -0.24500 1.85000 -2.56400
C 0.14600 -2.82400 -2.03700
N -0.61700 -0.00900 2.12600
C -0.59400 -0.90800 3.10500
C -0.93600 -0.30900 4.50200
C -1.77300 0.96400 4.03200
C -1.15500 1.16800 2.66000
C -3.26300 0.68500 3.86300
C 0.34500 0.11000 5.29900
C 0.12400 0.39700 6.78700
H 1.16800 0.03300 7.73300
N -0.18500 1.96100 -0.15200
C -0.70300 2.80000 0.77700
C -0.62000 4.15600 0.19300
C -0.18700 4.01500 -1.22500
C -0.21400 2.58300 -1.38000
C -0.88700 5.40600 0.97400
C 0.18100 5.01300 -2.27700
O 0.30300 4.69000 -3.50800
C 0.31000 6.41400 -1.83700
N -0.26500 -0.41300 -2.02900
C -0.27900 0.56900 -2.93700
C -0.19600 0.02400 -4.33200
C 0.12400 -1.53300 -4.18000
C 0.08600 -1.63200 -2.63500
C -1.45100 0.20500 -5.19700
C 1.37300 -2.07000 -4.92300
C 2.62600 -1.49000 -4.30600
N 0.15000 -2.14400 0.30300
C 0.17300 -3.13600 -0.68800
C 0.17300 -4.43800 0.00400
C 0.13300 -4.11100 1.35800
C 0.08300 -2.69500 1.50200
C 0.14900 -5.71500 -0.62300
C 0.09600 -4.62900 2.71600
O 0.20800 -5.74700 3.22100
C -0.25500 -3.42800 3.70100
C 0.71700 -3.48200 4.84800
O 1.93100 -3.25500 4.66900
O 0.03800 -3.55600 6.00300
C 0.94300 -3.58300 7.18300
H -1.85900 3.22000 2.49700
H -0.21800 2.45300 -3.47400
H 0.27600 -3.74700 -2.60500
H -1.55400 -0.94900 5.13200
H -1.58500 1.83100 4.66500
H -3.48400 -0.37700 3.96900
H -3.51100 1.02700 2.85800
H -3.85200 1.30100 4.54300
H 0.66900 1.09600 4.96600
H 1.13000 -0.63900 5.18900
H -0.84400 0.02600 7.12500
H 0.06200 1.47700 6.92100
H -1.34400 5.18600 1.93800
H -1.65100 5.96300 0.43200
H 0.00700 6.02000 1.08400
H -0.63500 6.74400 -1.40500
H 0.66500 6.97000 -2.70400
H 1.04800 6.46600 -1.03600
H 0.60800 0.50100 -4.89100
H -0.69200 -2.15600 -4.54700
H -1.26700 0.74000 -6.12900
H -2.20400 0.71400 -4.59600
H -1.96700 -0.72000 -5.45300
H 1.35600 -1.75900 -5.96700
H 1.45200 -3.15700 -4.90200
H 2.71400 -0.52200 -4.79800
H 3.48700 -2.12100 -4.52900
H 2.49500 -1.30300 -3.24000
H 0.86700 -6.33300 -0.08400
H 0.40400 -5.64200 -1.68000
H -0.89100 -5.99900 -0.46300
H -1.28300 -3.58100 4.02800
H 0.69800 -4.47800 7.75500
H 0.83300 -2.61900 7.68000
H 2.00000 -3.75400 6.97600
Mg 15.76475 1.42807 1.20357
C 17.79744 0.66617 4.06133
C 13.10219 1.59559 3.32896
C 13.87766 1.65453 -1.33710
C 18.30090 0.09659 -0.78158
N 15.59802 1.14858 3.39134
C 16.44805 0.92293 4.38173
C 15.83221 1.05474 5.80051
C 14.29673 0.77400 5.42319
C 14.31535 1.23211 3.96632
C 13.92885 -0.70010 5.45568
C 16.02220 2.49080 6.40353
C 15.72221 2.60486 7.89977
H 16.52798 3.51992 8.70343
N 13.89503 2.07452 1.04609
C 12.95557 2.09143 2.01481
C 11.74273 2.64111 1.38950
C 11.99493 2.79351 -0.06923
C 13.28669 2.14650 -0.18242
C 10.52959 3.03982 2.17864
C 11.19872 3.40721 -1.18082
O 11.50237 3.21662 -2.41139
C 9.99868 4.16083 -0.78910
N 15.95048 0.75619 -0.75511
C 15.00894 1.03469 -1.67372
C 15.48547 0.69090 -3.06481
C 17.04009 0.34751 -2.91377
C 17.17873 0.47101 -1.38050
C 14.77013 -0.47712 -3.74334
C 18.02698 1.14286 -3.81161
C 18.04750 2.59587 -3.39479
N 17.77612 0.70788 1.52570
C 18.65432 0.16955 0.55975
C 19.86288 -0.28680 1.27638
C 19.59222 -0.00103 2.62306
C 18.29752 0.57308 2.73996
C 20.99185 -0.91989 0.68415
C 20.10304 -0.06425 3.97353
O 21.18006 -0.37402 4.48128
C 18.91267 0.24870 4.97925
C 19.40583 1.25308 5.98450
O 19.71068 2.40530 5.62945
O 19.23038 0.75894 7.22362
C 19.69447 1.72364 8.25599
H 12.16729 1.44845 3.87045
H 13.31236 1.80963 -2.25898
H 19.17671 -0.23988 -1.34051
H 16.17952 0.31961 6.51657
H 13.62573 1.39597 6.00993
H 14.79347 -1.32775 5.61260
H 13.47695 -0.91174 4.49545
H 13.14879 -0.87759 6.20155
H 15.24273 3.15265 6.00464
H 17.00914 2.86045 6.20365
H 15.65882 1.62255 8.38351
H 14.72252 3.02878 8.02193
H 10.57440 2.65750 3.20588
H 9.67367 2.52147 1.73300
H 10.34438 4.11575 2.15155
H 9.32654 3.50814 -0.23712
H 9.61370 4.59786 -1.71250
H 10.29653 4.96011 -0.10131
H 15.37573 1.53747 -3.73143
H 17.25177 -0.70224 -3.16489
H 14.31695 -0.20598 -4.71554
H 14.01712 -0.85647 -3.06539
H 15.38678 -1.35687 -3.91937
H 17.69266 1.12307 -4.85180
H 19.03931 0.75328 -3.79125
H 17.18020 3.01395 -3.91448
H 18.96980 3.07419 -3.71822
H 17.86806 2.69906 -2.31831
H 21.86974 -0.47054 1.12902
H 20.99021 -0.80466 -0.39774
H 20.81581 -1.95556 0.98691
H 18.62436 -0.69264 5.44865
H 20.42660 1.19886 8.87751
H 18.77826 2.08901 8.75681
H 20.27373 2.57610 7.92102

