%nproc=24
%mem=175gb
#p cam-b3lyp/Def2SVP td=(nstates=5)

TDDFT excited states in gaussian

0 1
Mg 0.00000 0.00000 0.00000
C -0.21700 -2.21800 2.80100
C -1.25500 2.44200 2.02600
C -0.24500 1.85000 -2.56400
C 0.14600 -2.82400 -2.03700
N -0.61700 -0.00900 2.12600
C -0.59400 -0.90800 3.10500
C -0.93600 -0.30900 4.50200
C -1.77300 0.96400 4.03200
C -1.15500 1.16800 2.66000
C -3.26300 0.68500 3.86300
C 0.34500 0.11000 5.29900
C 0.12400 0.39700 6.78700
H 1.16800 0.03300 7.73300
N -0.18500 1.96100 -0.15200
C -0.70300 2.80000 0.77700
C -0.62000 4.15600 0.19300
C -0.18700 4.01500 -1.22500
C -0.21400 2.58300 -1.38000
C -0.88700 5.40600 0.97400
C 0.18100 5.01300 -2.27700
O 0.30300 4.69000 -3.50800
C 0.31000 6.41400 -1.83700
N -0.26500 -0.41300 -2.02900
C -0.27900 0.56900 -2.93700
C -0.19600 0.02400 -4.33200
C 0.12400 -1.53300 -4.18000
C 0.08600 -1.63200 -2.63500
C -1.45100 0.20500 -5.19700
C 1.37300 -2.07000 -4.92300
C 2.62600 -1.49000 -4.30600
N 0.15000 -2.14400 0.30300
C 0.17300 -3.13600 -0.68800
C 0.17300 -4.43800 0.00400
C 0.13300 -4.11100 1.35800
C 0.08300 -2.69500 1.50200
C 0.14900 -5.71500 -0.62300
C 0.09600 -4.62900 2.71600
O 0.20800 -5.74700 3.22100
C -0.25500 -3.42800 3.70100
C 0.71700 -3.48200 4.84800
O 1.93100 -3.25500 4.66900
O 0.03800 -3.55600 6.00300
C 0.94300 -3.58300 7.18300
H -1.85900 3.22000 2.49700
H -0.21800 2.45300 -3.47400
H 0.27600 -3.74700 -2.60500
H -1.55400 -0.94900 5.13200
H -1.58500 1.83100 4.66500
H -3.48400 -0.37700 3.96900
H -3.51100 1.02700 2.85800
H -3.85200 1.30100 4.54300
H 0.66900 1.09600 4.96600
H 1.13000 -0.63900 5.18900
H -0.84400 0.02600 7.12500
H 0.06200 1.47700 6.92100
H -1.34400 5.18600 1.93800
H -1.65100 5.96300 0.43200
H 0.00700 6.02000 1.08400
H -0.63500 6.74400 -1.40500
H 0.66500 6.97000 -2.70400
H 1.04800 6.46600 -1.03600
H 0.60800 0.50100 -4.89100
H -0.69200 -2.15600 -4.54700
H -1.26700 0.74000 -6.12900
H -2.20400 0.71400 -4.59600
H -1.96700 -0.72000 -5.45300
H 1.35600 -1.75900 -5.96700
H 1.45200 -3.15700 -4.90200
H 2.71400 -0.52200 -4.79800
H 3.48700 -2.12100 -4.52900
H 2.49500 -1.30300 -3.24000
H 0.86700 -6.33300 -0.08400
H 0.40400 -5.64200 -1.68000
H -0.89100 -5.99900 -0.46300
H -1.28300 -3.58100 4.02800
H 0.69800 -4.47800 7.75500
H 0.83300 -2.61900 7.68000
H 2.00000 -3.75400 6.97600
Mg 31.52489 2.84328 2.40112
C 33.45259 4.34399 5.02998
C 29.92923 1.02994 4.80950
C 30.13028 1.18145 0.08578
C 33.99727 3.89043 0.17929
N 31.74972 2.78354 4.60070
C 32.47152 3.44316 5.49415
C 32.06733 3.17879 6.96938
C 31.38344 1.73860 6.77693
C 30.95917 1.86287 5.31501
C 32.36629 0.58536 6.89266
C 31.03931 4.23573 7.50607
C 30.83705 4.22350 9.02288
H 30.59945 5.49337 9.70364
N 29.90349 1.69951 2.43875
C 29.38424 1.05882 3.50701
C 28.20394 0.33619 3.00816
C 28.16379 0.46965 1.52651
C 29.43690 1.11872 1.28571
C 27.20756 -0.32123 3.91835
C 27.15328 0.06677 0.49560
O 27.43134 0.06611 -0.75560
C 25.85929 -0.41601 0.99958
N 32.09295 2.38762 0.45381
C 31.27805 1.69303 -0.35946
C 31.77420 1.72455 -1.78538
C 32.96575 2.79109 -1.80218
C 33.01316 3.14127 -0.29868
C 32.27518 0.39330 -2.34499
C 32.85676 3.95198 -2.82841
C 31.70807 4.86225 -2.45787
N 33.29588 4.07581 2.51302
C 34.20255 4.36303 1.46921
C 35.30861 5.14664 2.05659
C 34.97763 5.24203 3.41668
C 33.76212 4.54843 3.66355
C 36.45465 5.62086 1.35814
C 35.38556 5.76273 4.70165
O 36.28692 6.50342 5.09238
C 34.48147 5.09708 5.82678
C 33.99793 6.18951 6.74072
O 33.22542 7.06905 6.32092
O 34.35051 5.89438 8.00522
C 33.88340 6.94320 8.95053
H 29.52712 0.25072 5.45758
H 29.63472 0.71713 -0.76997
H 34.75651 4.33782 -0.46574
H 32.89741 3.10668 7.66187
H 30.51319 1.62572 7.41825
H 33.38643 0.93145 6.96807
H 32.23270 -0.00606 5.99632
H 32.08799 -0.06483 7.72700
H 30.03053 3.95183 7.17971
H 31.30612 5.22386 7.18505
H 31.61810 3.65141 9.53826
H 29.91561 3.68009 9.24572
H 27.58860 -0.39687 4.94426
H 27.10966 -1.36089 3.58762
H 26.22551 0.15514 3.88206
H 26.02098 -1.27794 1.64255
H 25.24006 -0.57080 0.11388
H 25.41446 0.36504 1.62623
H 30.99437 2.05823 -2.45889
H 33.92987 2.32109 -2.04594
H 31.74865 0.08147 -3.26673
H 32.17346 -0.36038 -1.57548
H 33.34077 0.35653 -2.56496
H 32.63259 3.55849 -3.82293
H 33.76392 4.54108 -2.91212
H 30.84059 4.35222 -2.88733
H 31.84364 5.84842 -2.89733
H 31.56662 4.89507 -1.37133
H 36.62131 6.63782 1.68757
H 36.31309 5.56933 0.28061
H 37.20543 4.90732 1.70810
H 35.09752 4.36641 6.35231
H 34.76307 7.29323 9.49949
H 33.07462 6.47389 9.54160
H 33.51494 7.87064 8.52798

