%nproc=24
%mem=175gb
#p cam-b3lyp/Def2SVP td=(nstates=5)

TDDFT excited states in gaussian

0 1
Mg 0.00000 0.00000 0.00000
C -0.21700 -2.21800 2.80100
C -1.25500 2.44200 2.02600
C -0.24500 1.85000 -2.56400
C 0.14600 -2.82400 -2.03700
N -0.61700 -0.00900 2.12600
C -0.59400 -0.90800 3.10500
C -0.93600 -0.30900 4.50200
C -1.77300 0.96400 4.03200
C -1.15500 1.16800 2.66000
C -3.26300 0.68500 3.86300
C 0.34500 0.11000 5.29900
C 0.12400 0.39700 6.78700
H 1.16800 0.03300 7.73300
N -0.18500 1.96100 -0.15200
C -0.70300 2.80000 0.77700
C -0.62000 4.15600 0.19300
C -0.18700 4.01500 -1.22500
C -0.21400 2.58300 -1.38000
C -0.88700 5.40600 0.97400
C 0.18100 5.01300 -2.27700
O 0.30300 4.69000 -3.50800
C 0.31000 6.41400 -1.83700
N -0.26500 -0.41300 -2.02900
C -0.27900 0.56900 -2.93700
C -0.19600 0.02400 -4.33200
C 0.12400 -1.53300 -4.18000
C 0.08600 -1.63200 -2.63500
C -1.45100 0.20500 -5.19700
C 1.37300 -2.07000 -4.92300
C 2.62600 -1.49000 -4.30600
N 0.15000 -2.14400 0.30300
C 0.17300 -3.13600 -0.68800
C 0.17300 -4.43800 0.00400
C 0.13300 -4.11100 1.35800
C 0.08300 -2.69500 1.50200
C 0.14900 -5.71500 -0.62300
C 0.09600 -4.62900 2.71600
O 0.20800 -5.74700 3.22100
C -0.25500 -3.42800 3.70100
C 0.71700 -3.48200 4.84800
O 1.93100 -3.25500 4.66900
O 0.03800 -3.55600 6.00300
C 0.94300 -3.58300 7.18300
H -1.85900 3.22000 2.49700
H -0.21800 2.45300 -3.47400
H 0.27600 -3.74700 -2.60500
H -1.55400 -0.94900 5.13200
H -1.58500 1.83100 4.66500
H -3.48400 -0.37700 3.96900
H -3.51100 1.02700 2.85800
H -3.85200 1.30100 4.54300
H 0.66900 1.09600 4.96600
H 1.13000 -0.63900 5.18900
H -0.84400 0.02600 7.12500
H 0.06200 1.47700 6.92100
H -1.34400 5.18600 1.93800
H -1.65100 5.96300 0.43200
H 0.00700 6.02000 1.08400
H -0.63500 6.74400 -1.40500
H 0.66500 6.97000 -2.70400
H 1.04800 6.46600 -1.03600
H 0.60800 0.50100 -4.89100
H -0.69200 -2.15600 -4.54700
H -1.26700 0.74000 -6.12900
H -2.20400 0.71400 -4.59600
H -1.96700 -0.72000 -5.45300
H 1.35600 -1.75900 -5.96700
H 1.45200 -3.15700 -4.90200
H 2.71400 -0.52200 -4.79800
H 3.48700 -2.12100 -4.52900
H 2.49500 -1.30300 -3.24000
H 0.86700 -6.33300 -0.08400
H 0.40400 -5.64200 -1.68000
H -0.89100 -5.99900 -0.46300
H -1.28300 -3.58100 4.02800
H 0.69800 -4.47800 7.75500
H 0.83300 -2.61900 7.68000
H 2.00000 -3.75400 6.97600
Mg 13.14252 1.17684 1.00585
C 10.45221 1.29200 3.37821
C 15.11871 2.58379 3.40371
C 15.40629 1.50487 -1.19304
C 10.73757 0.86333 -1.49687
N 12.72473 1.80966 3.08365
C 11.68177 1.74774 3.89775
C 11.99282 2.12388 5.37129
C 13.28991 3.03616 5.11793
C 13.76848 2.42118 3.80438
C 12.95808 4.49793 4.86802
C 12.33558 0.86914 6.24888
C 12.34669 1.12339 7.75786
H 11.88109 0.06184 8.64600
N 15.09510 1.46956 1.20658
C 15.72974 2.03385 2.25543
C 17.15904 2.03580 1.90721
C 17.29923 1.57718 0.49840
C 15.90697 1.51799 0.10067
C 18.23716 2.37049 2.89668
C 18.48990 1.25850 -0.35421
O 18.38843 1.10698 -1.62290
C 19.79253 1.22131 0.32642
N 13.07969 1.39655 -1.06058
C 14.21151 1.46562 -1.78318
C 13.92375 1.34356 -3.26057
C 12.38142 0.93391 -3.36545
C 12.00520 0.97913 -1.86819
C 14.17387 2.60081 -4.09313
C 12.04768 -0.35030 -4.17298
C 12.58379 -1.56665 -3.45293
N 11.00034 0.90524 0.93248
C 10.18980 0.82441 -0.22101
C 8.78683 0.75614 0.23664
C 8.87782 0.82573 1.63498
C 10.23988 0.95035 2.02066
C 7.63977 0.69319 -0.60385
C 8.13059 0.83282 2.87203
O 6.94926 0.66894 3.17428
C 9.10745 1.26232 4.05003
C 8.91413 0.29845 5.18849
O 9.22481 -0.89912 5.06241
O 8.60094 0.98755 6.30089
C 8.41017 0.07577 7.46024
H 15.76344 3.22814 4.00206
H 16.15516 1.50425 -1.98845
H 9.93570 0.66561 -2.21143
H 11.22156 2.70300 5.86480
H 14.03224 2.89287 5.89882
H 11.89383 4.66092 4.78465
H 13.45434 4.75812 3.94224
H 13.41271 5.12505 5.64026
H 13.38908 0.60196 6.09561
H 11.67415 0.05504 6.02446
H 11.87328 2.07779 8.01855
H 13.38346 1.24102 8.08232
H 17.82295 2.82856 3.80332
H 18.84871 3.16084 2.44811
H 18.87728 1.51621 3.12720
H 19.98309 2.18420 0.79440
H 20.50766 0.89013 -0.42908
H 19.74413 0.48278 1.13441
H 14.52598 0.56276 -3.70864
H 11.78572 1.71338 -3.86284
H 14.88569 2.43926 -4.92456
H 14.52986 3.38143 -3.43402
H 13.28312 3.05260 -4.52633
H 12.54138 -0.32386 -5.14751
H 10.98619 -0.48353 -4.35323
H 13.63148 -1.59735 -3.76675
H 12.05158 -2.46264 -3.76596
H 12.56921 -1.41924 -2.36678
H 6.97883 -0.04748 -0.17364
H 7.90990 0.43977 -1.62687
H 7.27804 1.72128 -0.51748
H 8.85185 2.28464 4.33127
H 7.41344 0.27742 7.86466
H 9.27181 0.25903 8.12938
H 8.34491 -0.98669 7.25686

