%nproc=24
%mem=175gb
#p cam-b3lyp/Def2SVP td=(nstates=5)

TDDFT excited states in gaussian

0 1
Mg 10.51715 0.95265 0.80409
C 10.19164 -0.49463 4.07189
C 9.27364 3.84194 2.12330
C 10.36725 2.11720 -2.14358
C 10.63658 -2.28973 -0.46808
N 9.85534 1.48176 2.84721
C 9.83527 0.86914 4.02137
C 9.48647 1.78994 5.22138
C 8.67956 2.92737 4.42511
C 9.32918 2.77179 3.05163
C 7.19584 2.62871 4.28831
C 10.76531 2.37397 5.91814
C 10.51429 3.02859 7.27837
H 11.53653 2.89786 8.31298
N 10.38026 2.82808 0.16960
C 9.86909 3.87979 0.84332
C 9.98003 5.03176 -0.06488
C 10.44687 4.54110 -1.39003
C 10.39516 3.10905 -1.17403
C 9.73282 6.44440 0.37869
C 10.85801 5.24411 -2.64818
O 10.99971 4.61467 -3.75568
C 10.99898 6.70526 -2.56661
N 10.29103 0.05418 -1.05708
C 10.31111 0.78587 -2.18498
C 10.40848 -0.09698 -3.40624
C 10.69454 -1.56903 -2.85052
C 10.62119 -1.28571 -1.33403
C 9.17415 -0.12442 -4.30738
C 11.94745 -2.29990 -3.40616
C 13.20318 -1.60309 -2.93395
N 10.61811 -1.04035 1.63223
C 10.63329 -2.25996 0.92062
C 10.59066 -3.34746 1.91961
C 10.52992 -2.67967 3.15203
C 10.51400 -1.27527 2.93547
C 10.56167 -4.74110 1.63144
C 10.46492 -2.84358 4.58647
O 10.53500 -3.80146 5.35541
C 10.11537 -1.43768 5.24042
C 11.06206 -1.21051 6.38703
O 12.28035 -1.06788 6.18204
O 10.35146 -0.98303 7.50670
C 11.24644 -0.74112 8.66959
H 8.68301 4.72168 2.38040
H 10.42639 2.46631 -3.17707
H 10.76942 -3.32781 -0.78017
H 8.84857 1.33720 5.97097
H 8.88201 3.91425 4.83308
H 6.94896 1.64070 4.64753
H 6.97484 2.71353 3.23237
H 6.60750 3.40694 4.78282
H 11.11496 3.24648 5.35139
H 11.52423 1.62193 6.01359
H 9.52566 2.77661 7.68092
H 10.47950 4.11207 7.14091
H 9.24430 6.47813 1.36033
H 8.99294 6.87023 -0.30769
H 10.63536 7.05867 0.35090
H 10.05470 7.14208 -2.25041
H 11.38500 7.01635 -3.53928
H 11.73218 6.94307 -1.78785
H 11.23408 0.20669 -4.03812
H 9.86981 -2.25917 -3.08153
H 9.39073 0.16447 -5.35319
H 8.42486 0.52854 -3.87990
H 8.65276 -1.07928 -4.34747
H 11.95921 -2.25458 -4.49793
H 11.99597 -3.34708 -3.12677
H 13.31647 -0.78532 -3.65193
H 14.05387 -2.28064 -2.96997
H 13.05619 -1.15496 -1.94440
H 11.24808 -5.21574 2.31996
H 10.83464 -4.93896 0.59698
H 9.50824 -4.95879 1.82683
H 9.07630 -1.47868 5.56939
H 10.96687 -1.46268 9.44345
H 11.13271 0.33129 8.91609
H 12.30018 -0.96173 8.54547

