%nproc=24
%mem=175gb
#p cam-b3lyp/Def2SVP td=(nstates=5)

TDDFT excited states in gaussian

0 1
Mg 0.00000 0.00000 0.00000
C -0.21700 -2.21800 2.80100
C -1.25500 2.44200 2.02600
C -0.24500 1.85000 -2.56400
C 0.14600 -2.82400 -2.03700
N -0.61700 -0.00900 2.12600
C -0.59400 -0.90800 3.10500
C -0.93600 -0.30900 4.50200
C -1.77300 0.96400 4.03200
C -1.15500 1.16800 2.66000
C -3.26300 0.68500 3.86300
C 0.34500 0.11000 5.29900
C 0.12400 0.39700 6.78700
H 1.16800 0.03300 7.73300
N -0.18500 1.96100 -0.15200
C -0.70300 2.80000 0.77700
C -0.62000 4.15600 0.19300
C -0.18700 4.01500 -1.22500
C -0.21400 2.58300 -1.38000
C -0.88700 5.40600 0.97400
C 0.18100 5.01300 -2.27700
O 0.30300 4.69000 -3.50800
C 0.31000 6.41400 -1.83700
N -0.26500 -0.41300 -2.02900
C -0.27900 0.56900 -2.93700
C -0.19600 0.02400 -4.33200
C 0.12400 -1.53300 -4.18000
C 0.08600 -1.63200 -2.63500
C -1.45100 0.20500 -5.19700
C 1.37300 -2.07000 -4.92300
C 2.62600 -1.49000 -4.30600
N 0.15000 -2.14400 0.30300
C 0.17300 -3.13600 -0.68800
C 0.17300 -4.43800 0.00400
C 0.13300 -4.11100 1.35800
C 0.08300 -2.69500 1.50200
C 0.14900 -5.71500 -0.62300
C 0.09600 -4.62900 2.71600
O 0.20800 -5.74700 3.22100
C -0.25500 -3.42800 3.70100
C 0.71700 -3.48200 4.84800
O 1.93100 -3.25500 4.66900
O 0.03800 -3.55600 6.00300
C 0.94300 -3.58300 7.18300
H -1.85900 3.22000 2.49700
H -0.21800 2.45300 -3.47400
H 0.27600 -3.74700 -2.60500
H -1.55400 -0.94900 5.13200
H -1.58500 1.83100 4.66500
H -3.48400 -0.37700 3.96900
H -3.51100 1.02700 2.85800
H -3.85200 1.30100 4.54300
H 0.66900 1.09600 4.96600
H 1.13000 -0.63900 5.18900
H -0.84400 0.02600 7.12500
H 0.06200 1.47700 6.92100
H -1.34400 5.18600 1.93800
H -1.65100 5.96300 0.43200
H 0.00700 6.02000 1.08400
H -0.63500 6.74400 -1.40500
H 0.66500 6.97000 -2.70400
H 1.04800 6.46600 -1.03600
H 0.60800 0.50100 -4.89100
H -0.69200 -2.15600 -4.54700
H -1.26700 0.74000 -6.12900
H -2.20400 0.71400 -4.59600
H -1.96700 -0.72000 -5.45300
H 1.35600 -1.75900 -5.96700
H 1.45200 -3.15700 -4.90200
H 2.71400 -0.52200 -4.79800
H 3.48700 -2.12100 -4.52900
H 2.49500 -1.30300 -3.24000
H 0.86700 -6.33300 -0.08400
H 0.40400 -5.64200 -1.68000
H -0.89100 -5.99900 -0.46300
H -1.28300 -3.58100 4.02800
H 0.69800 -4.47800 7.75500
H 0.83300 -2.61900 7.68000
H 2.00000 -3.75400 6.97600
Mg 13.14818 1.18728 0.99837
C 14.79584 -0.93011 3.38184
C 13.75560 3.79141 3.11594
C 11.31605 2.99436 -0.85775
C 11.69648 -1.68418 -0.34065
N 14.15509 1.29131 2.96498
C 14.79658 0.43316 3.74370
C 15.54546 1.08368 4.93766
C 14.67843 2.42978 5.06070
C 14.18975 2.53850 3.61777
C 13.46640 2.28434 5.96578
C 17.04641 1.39575 4.60331
C 17.91583 1.74414 5.81346
H 19.30869 1.30553 5.81920
N 13.02294 3.16230 0.84947
C 13.33178 4.07107 1.79817
C 13.04704 5.38614 1.20346
C 12.38957 5.17253 -0.11442
C 12.19426 3.73695 -0.08197
C 13.46639 6.67710 1.84454
C 11.98970 6.10743 -1.21545
O 11.21675 5.73491 -2.16760
C 12.45381 7.49735 -1.09618
N 11.55208 0.75159 -0.26059
C 10.96672 1.71496 -0.99352
C 10.03248 1.12537 -2.02306
C 10.29665 -0.45156 -1.98988
C 11.31867 -0.51265 -0.83353
C 8.54428 1.39653 -1.80365
C 10.66325 -1.13223 -3.33708
C 12.02138 -0.65823 -3.80205
N 13.35247 -0.94283 1.29662
C 12.62931 -1.96810 0.64859
C 13.03710 -3.24625 1.26703
C 13.95942 -2.87086 2.25540
C 14.10030 -1.45682 2.26669
C 12.52888 -4.53262 0.93071
C 14.83791 -3.34845 3.29889
O 15.19956 -4.45751 3.68996
C 15.32362 -2.10362 4.15962
C 16.81326 -2.21408 4.33652
O 17.57452 -2.12278 3.35735
O 17.10392 -2.19107 5.65005
C 18.57073 -2.28692 5.87614
H 13.69276 4.63318 3.80614
H 10.74075 3.56188 -1.59289
H 11.36280 -2.63224 -0.76788
H 15.49649 0.52390 5.86396
H 15.30434 3.28078 5.31643
H 13.32174 1.26271 6.28435
H 12.62055 2.62173 5.38119
H 13.54253 2.97382 6.81144
H 17.10105 2.34412 4.05344
H 17.49200 0.58562 4.05946
H 17.42726 1.48447 6.76046
H 18.02829 2.83010 5.85885
H 13.78200 6.52603 2.88424
H 12.57010 7.30217 1.92085
H 14.22092 7.21075 1.26266
H 12.08479 7.92274 -0.16595
H 12.14410 7.98917 -2.02035
H 13.54752 7.49652 -1.02982
H 10.26240 1.49944 -3.01316
H 9.40842 -1.00651 -1.65387
H 8.06021 1.89627 -2.66388
H 8.43438 1.99180 -0.90692
H 7.94393 0.51817 -1.57288
H 9.95095 -0.84298 -4.11369
H 10.66320 -2.21599 -3.28753
H 11.79486 0.28920 -4.30021
H 12.46019 -1.37341 -4.49488
H 12.67333 -0.43480 -2.94959
H 13.37818 -5.20146 0.88786
H 11.98963 -4.51250 -0.01405
H 11.86282 -4.70731 1.77989
H 14.79452 -2.13791 5.11275
H 18.73649 -3.14075 6.54035
H 18.88141 -1.29221 6.24733
H 19.19198 -2.55402 5.02929

