%nproc=24
%mem=175gb
#p cam-b3lyp/Def2SVP td=(nstates=5)

TDDFT excited states in gaussian

0 1
Mg 0.00000 0.00000 0.00000
C -0.21700 -2.21800 2.80100
C -1.25500 2.44200 2.02600
C -0.24500 1.85000 -2.56400
C 0.14600 -2.82400 -2.03700
N -0.61700 -0.00900 2.12600
C -0.59400 -0.90800 3.10500
C -0.93600 -0.30900 4.50200
C -1.77300 0.96400 4.03200
C -1.15500 1.16800 2.66000
C -3.26300 0.68500 3.86300
C 0.34500 0.11000 5.29900
C 0.12400 0.39700 6.78700
H 1.16800 0.03300 7.73300
N -0.18500 1.96100 -0.15200
C -0.70300 2.80000 0.77700
C -0.62000 4.15600 0.19300
C -0.18700 4.01500 -1.22500
C -0.21400 2.58300 -1.38000
C -0.88700 5.40600 0.97400
C 0.18100 5.01300 -2.27700
O 0.30300 4.69000 -3.50800
C 0.31000 6.41400 -1.83700
N -0.26500 -0.41300 -2.02900
C -0.27900 0.56900 -2.93700
C -0.19600 0.02400 -4.33200
C 0.12400 -1.53300 -4.18000
C 0.08600 -1.63200 -2.63500
C -1.45100 0.20500 -5.19700
C 1.37300 -2.07000 -4.92300
C 2.62600 -1.49000 -4.30600
N 0.15000 -2.14400 0.30300
C 0.17300 -3.13600 -0.68800
C 0.17300 -4.43800 0.00400
C 0.13300 -4.11100 1.35800
C 0.08300 -2.69500 1.50200
C 0.14900 -5.71500 -0.62300
C 0.09600 -4.62900 2.71600
O 0.20800 -5.74700 3.22100
C -0.25500 -3.42800 3.70100
C 0.71700 -3.48200 4.84800
O 1.93100 -3.25500 4.66900
O 0.03800 -3.55600 6.00300
C 0.94300 -3.58300 7.18300
H -1.85900 3.22000 2.49700
H -0.21800 2.45300 -3.47400
H 0.27600 -3.74700 -2.60500
H -1.55400 -0.94900 5.13200
H -1.58500 1.83100 4.66500
H -3.48400 -0.37700 3.96900
H -3.51100 1.02700 2.85800
H -3.85200 1.30100 4.54300
H 0.66900 1.09600 4.96600
H 1.13000 -0.63900 5.18900
H -0.84400 0.02600 7.12500
H 0.06200 1.47700 6.92100
H -1.34400 5.18600 1.93800
H -1.65100 5.96300 0.43200
H 0.00700 6.02000 1.08400
H -0.63500 6.74400 -1.40500
H 0.66500 6.97000 -2.70400
H 1.04800 6.46600 -1.03600
H 0.60800 0.50100 -4.89100
H -0.69200 -2.15600 -4.54700
H -1.26700 0.74000 -6.12900
H -2.20400 0.71400 -4.59600
H -1.96700 -0.72000 -5.45300
H 1.35600 -1.75900 -5.96700
H 1.45200 -3.15700 -4.90200
H 2.71400 -0.52200 -4.79800
H 3.48700 -2.12100 -4.52900
H 2.49500 -1.30300 -3.24000
H 0.86700 -6.33300 -0.08400
H 0.40400 -5.64200 -1.68000
H -0.89100 -5.99900 -0.46300
H -1.28300 -3.58100 4.02800
H 0.69800 -4.47800 7.75500
H 0.83300 -2.61900 7.68000
H 2.00000 -3.75400 6.97600
Mg 31.53790 2.84372 2.40305
C 30.99909 0.58720 5.14109
C 30.00213 5.24578 4.27551
C 31.59181 4.72751 -0.14956
C 31.97387 0.04905 0.36702
N 30.65762 2.80062 4.43173
C 30.56599 1.90389 5.40220
C 30.05120 2.46871 6.75332
C 29.25364 3.74466 6.19231
C 30.03658 3.97398 4.90115
C 27.81022 3.43962 5.82786
C 31.22140 2.89656 7.70704
C 30.80520 3.16636 9.15471
H 31.73281 2.80766 10.22398
N 31.34586 4.81353 2.25635
C 30.71066 5.63558 3.11776
C 30.83476 6.98700 2.54992
C 31.45212 6.87394 1.20055
C 31.46848 5.43401 1.03796
C 30.46116 8.22643 3.30994
C 31.93465 7.89350 0.21371
O 32.21715 7.57855 -0.99618
C 31.97752 9.28742 0.67917
N 31.54151 2.45181 0.36130
C 31.62154 3.45145 -0.53438
C 31.88612 2.91990 -1.92285
C 32.20898 1.36509 -1.73336
C 31.97758 1.24225 -0.21127
C 30.74502 3.08382 -2.92655
C 33.55062 0.84817 -2.32112
C 34.71184 1.44234 -1.55697
N 31.68342 0.70891 2.70214
C 31.83954 -0.28285 1.70910
C 31.77092 -1.59319 2.38786
C 31.55490 -1.27081 3.73615
C 31.47308 0.14020 3.88400
C 31.85442 -2.86438 1.75284
C 31.36688 -1.80365 5.06635
O 31.42372 -2.92523 5.56891
C 30.87241 -0.62895 6.01606
C 31.69255 -0.67399 7.27616
O 32.91358 -0.44016 7.24426
O 30.86822 -0.77017 8.33522
C 31.63457 -0.80703 9.60926
H 29.33728 6.00722 4.68426
H 31.72534 5.33480 -1.04781
H 32.19861 -0.86708 -0.18333
H 29.37528 1.81470 7.29108
H 29.35632 4.59831 6.85722
H 27.59205 2.38417 5.89541
H 27.68366 3.78781 4.81111
H 27.13179 4.04156 6.43920
H 31.56809 3.89806 7.42146
H 32.01284 2.17277 7.68749
H 29.80072 2.78381 9.37293
H 30.71696 4.24644 9.29486
H 29.88226 7.98693 4.21045
H 29.76364 8.78948 2.68041
H 31.32297 8.85829 3.53511
H 30.98290 9.59360 0.99452
H 32.43257 9.85376 -0.13573
H 32.61909 9.34061 1.56583
H 32.74675 3.40612 -2.36559
H 31.45322 0.72994 -2.21839
H 31.03986 3.64175 -3.83532
H 29.92056 3.57658 -2.42856
H 30.28919 2.15434 -3.26341
H 33.66113 1.17574 -3.35777
H 33.63708 -0.23325 -2.31415
H 34.84108 2.42193 -2.02685
H 35.60214 0.82780 -1.67421
H 34.44619 1.61275 -0.50719
H 32.50160 -3.47697 2.36635
H 32.23410 -2.77715 0.73697
H 30.80273 -3.16233 1.77382
H 29.81171 -0.79055 6.21196
H 31.32899 -1.71414 10.13978
H 31.43282 0.15992 10.10731
H 32.70683 -0.95055 9.54519

