%nproc=24
%mem=175gb
#p cam-b3lyp/Def2SVP td=(nstates=5)

TDDFT excited states in gaussian

0 1
Mg 0.00000 0.00000 0.00000
C -0.21700 -2.21800 2.80100
C -1.25500 2.44200 2.02600
C -0.24500 1.85000 -2.56400
C 0.14600 -2.82400 -2.03700
N -0.61700 -0.00900 2.12600
C -0.59400 -0.90800 3.10500
C -0.93600 -0.30900 4.50200
C -1.77300 0.96400 4.03200
C -1.15500 1.16800 2.66000
C -3.26300 0.68500 3.86300
C 0.34500 0.11000 5.29900
C 0.12400 0.39700 6.78700
H 1.16800 0.03300 7.73300
N -0.18500 1.96100 -0.15200
C -0.70300 2.80000 0.77700
C -0.62000 4.15600 0.19300
C -0.18700 4.01500 -1.22500
C -0.21400 2.58300 -1.38000
C -0.88700 5.40600 0.97400
C 0.18100 5.01300 -2.27700
O 0.30300 4.69000 -3.50800
C 0.31000 6.41400 -1.83700
N -0.26500 -0.41300 -2.02900
C -0.27900 0.56900 -2.93700
C -0.19600 0.02400 -4.33200
C 0.12400 -1.53300 -4.18000
C 0.08600 -1.63200 -2.63500
C -1.45100 0.20500 -5.19700
C 1.37300 -2.07000 -4.92300
C 2.62600 -1.49000 -4.30600
N 0.15000 -2.14400 0.30300
C 0.17300 -3.13600 -0.68800
C 0.17300 -4.43800 0.00400
C 0.13300 -4.11100 1.35800
C 0.08300 -2.69500 1.50200
C 0.14900 -5.71500 -0.62300
C 0.09600 -4.62900 2.71600
O 0.20800 -5.74700 3.22100
C -0.25500 -3.42800 3.70100
C 0.71700 -3.48200 4.84800
O 1.93100 -3.25500 4.66900
O 0.03800 -3.55600 6.00300
C 0.94300 -3.58300 7.18300
H -1.85900 3.22000 2.49700
H -0.21800 2.45300 -3.47400
H 0.27600 -3.74700 -2.60500
H -1.55400 -0.94900 5.13200
H -1.58500 1.83100 4.66500
H -3.48400 -0.37700 3.96900
H -3.51100 1.02700 2.85800
H -3.85200 1.30100 4.54300
H 0.66900 1.09600 4.96600
H 1.13000 -0.63900 5.18900
H -0.84400 0.02600 7.12500
H 0.06200 1.47700 6.92100
H -1.34400 5.18600 1.93800
H -1.65100 5.96300 0.43200
H 0.00700 6.02000 1.08400
H -0.63500 6.74400 -1.40500
H 0.66500 6.97000 -2.70400
H 1.04800 6.46600 -1.03600
H 0.60800 0.50100 -4.89100
H -0.69200 -2.15600 -4.54700
H -1.26700 0.74000 -6.12900
H -2.20400 0.71400 -4.59600
H -1.96700 -0.72000 -5.45300
H 1.35600 -1.75900 -5.96700
H 1.45200 -3.15700 -4.90200
H 2.71400 -0.52200 -4.79800
H 3.48700 -2.12100 -4.52900
H 2.49500 -1.30300 -3.24000
H 0.86700 -6.33300 -0.08400
H 0.40400 -5.64200 -1.68000
H -0.89100 -5.99900 -0.46300
H -1.28300 -3.58100 4.02800
H 0.69800 -4.47800 7.75500
H 0.83300 -2.61900 7.68000
H 2.00000 -3.75400 6.97600
Mg 10.52040 0.95077 0.79938
C 12.03014 -1.16807 3.27127
C 10.97504 3.54762 2.96370
C 8.79564 2.75525 -1.15932
C 9.17617 -1.92330 -0.64230
N 11.40102 1.05114 2.82588
C 11.99843 0.19322 3.63915
C 12.66618 0.84243 4.88100
C 11.78356 2.18192 4.95591
C 11.38573 2.29503 3.48567
C 10.51814 2.02341 5.78229
C 14.18290 1.16649 4.64318
C 14.97209 1.51431 5.90728
H 16.36493 1.08515 5.99839
N 10.39069 2.92567 0.65261
C 10.63284 3.83143 1.62329
C 10.37666 5.14769 1.01833
C 9.80480 4.93667 -0.33930
C 9.61808 3.49964 -0.32624
C 10.74570 6.43803 1.69082
C 9.46824 5.87470 -1.45869
O 8.75929 5.50203 -2.45936
C 9.91401 7.26709 -1.30367
N 9.00967 0.51097 -0.55952
C 8.46466 1.47425 -1.32306
C 7.60115 0.88382 -2.41216
C 7.87395 -0.69142 -2.37018
C 8.82173 -0.75174 -1.15220
C 6.10022 1.14368 -2.28538
C 8.32929 -1.36237 -3.69501
C 9.71053 -0.87666 -4.07137
N 10.72072 -1.17946 1.09943
C 10.04702 -2.20614 0.40220
C 10.42425 -3.48478 1.03876
C 11.27997 -3.10842 2.08498
C 11.40979 -1.69353 2.11205
C 9.94735 -4.77276 0.66486
C 12.09456 -3.58559 3.17926
O 12.43883 -4.69424 3.58684
C 12.51637 -2.34210 4.07492
C 13.99270 -2.44337 4.34455
O 14.81329 -2.34166 3.41562
O 14.20011 -2.42541 5.67384
C 15.65046 -2.51248 5.99120
H 10.86297 4.38524 3.65271
H 8.26363 3.32277 -1.92637
H 8.87675 -2.87130 -1.09431
H 12.56311 0.27738 5.79963
H 12.38610 3.03578 5.25465
H 10.36104 0.99913 6.08613
H 9.70829 2.35815 5.14736
H 10.53608 2.70886 6.63445
H 14.26522 2.11813 4.10249
H 14.66753 0.36232 4.12444
H 14.42686 1.24626 6.82041
H 15.07373 2.60075 5.96497
H 10.99645 6.28355 2.74754
H 9.84196 7.05657 1.71372
H 11.53147 6.97990 1.16014
H 9.48427 7.68497 -0.39639
H 9.65948 7.76172 -2.24305
H 11.00138 7.27334 -1.16871
H 7.89015 1.26474 -3.38401
H 6.97035 -1.25420 -2.09339
H 5.66759 1.64471 -3.17188
H 5.92997 1.73339 -1.39443
H 5.49283 0.26003 -2.09712
H 7.66513 -1.07383 -4.51342
H 8.33385 -2.44636 -3.65088
H 9.50900 0.07185 -4.57812
H 10.19708 -1.58512 -4.73874
H 10.30604 -0.65336 -3.17853
H 10.80240 -5.43557 0.67219
H 9.46837 -4.75126 -0.31181
H 9.23052 -4.95651 1.46964
H 11.92870 -2.38509 4.99273
H 15.78026 -3.36870 6.66032
H 15.93012 -1.51768 6.38607
H 16.32557 -2.77081 5.18377

