%nproc=24
%mem=175gb
#p cam-b3lyp/Def2SVP td=(nstates=5)

TDDFT excited states in gaussian

0 1
Mg 13.13828 1.18529 0.98775
C 15.34720 -1.30011 -0.36225
C 15.26587 3.54024 -0.26215
C 11.46138 3.38334 2.54467
C 11.84182 -1.29488 3.06468
N 15.02894 1.01760 -0.14784
C 15.73935 0.02233 -0.65686
C 16.89080 0.46915 -1.59712
C 17.10706 1.95356 -1.02386
C 15.70606 2.20895 -0.47191
C 18.09370 2.01516 0.13031
C 16.45622 0.49324 -3.10463
C 17.60815 0.61977 -4.10403
H 17.50321 -0.08311 -5.37974
N 13.04433 3.15070 0.72905
C 13.98893 3.94581 0.18425
C 13.44676 5.31216 0.24173
C 12.17522 5.28015 1.01431
C 12.18863 3.91044 1.48739
C 14.08544 6.47147 -0.46644
C 11.12775 6.31515 1.29318
O 10.22556 6.13657 2.18593
C 11.24516 7.58187 0.55622
N 11.98815 1.11736 2.71833
C 11.32177 2.20305 3.14859
C 10.34906 1.84620 4.24718
C 10.32677 0.24794 4.29885
C 11.40461 -0.05469 3.23485
C 10.68153 2.39538 5.63436
C 8.94130 -0.44129 4.16433
C 8.39053 -0.22574 2.77308
N 13.37190 -0.95307 1.18995
C 12.75433 -1.79225 2.14309
C 13.31212 -3.14740 1.95639
C 14.23971 -2.99660 0.91460
C 14.27335 -1.63895 0.49611
C 12.98385 -4.29601 2.73037
C 15.20578 -3.67511 0.08091
O 15.54408 -4.84716 -0.07909
C 16.05763 -2.58209 -0.69758
C 16.12393 -2.98867 -2.14423
O 15.09472 -3.01228 -2.84193
O 17.41323 -3.07141 -2.52005
C 17.53056 -3.46100 -3.95053
H 15.97800 4.35201 -0.41307
H 10.78296 4.07924 3.04361
H 11.41808 -2.14281 3.60701
H 17.80507 -0.10390 -1.49975
H 17.33647 2.65545 -1.82141
H 18.39827 1.03064 0.45295
H 17.57962 2.53300 0.92944
H 18.94731 2.64477 -0.13667
H 15.92583 1.43211 -3.30942
H 15.86312 -0.36791 -3.34398
H 18.58172 0.42617 -3.63754
H 17.67029 1.66024 -4.43203
H 15.09589 6.22333 -0.81404
H 14.24063 7.25677 0.28129
H 13.46305 6.86801 -1.27145
H 12.20915 8.03677 0.77127
H 10.35734 8.15851 0.82293
H 11.23235 7.36436 -0.51762
H 9.35382 2.20417 4.01384
H 10.71316 -0.13424 5.25513
H 9.87022 3.01159 6.06580
H 11.59731 2.96723 5.56459
H 10.93475 1.64375 6.38010
H 8.22501 0.01027 4.85511
H 8.96577 -1.50512 4.37567
H 7.93197 0.76538 2.84002
H 7.65156 -0.98703 2.53143
H 9.19862 -0.16589 2.03480
H 12.86441 -5.11624 2.03505
H 12.08120 -4.13589 3.31634
H 13.87466 -4.36797 3.36009
H 17.04543 -2.54713 -0.23648
H 18.16124 -4.35462 -3.98758
H 17.90116 -2.56078 -4.47590
H 16.63514 -3.81326 -4.44911

