%nproc=24
%mem=175gb
#p cam-b3lyp/Def2SVP td=(nstates=5)

TDDFT excited states in gaussian

0 1
Mg 31.53830 2.84455 2.40214
C 31.63084 0.64387 5.23542
C 30.00829 5.13204 4.41734
C 31.03534 4.62902 -0.17276
C 32.00776 0.04163 0.38497
N 30.94991 2.77985 4.53330
C 31.09143 1.91434 5.52588
C 30.70311 2.46863 6.92285
C 29.69871 3.62916 6.45038
C 30.26968 3.89508 5.05900
C 28.26294 3.15609 6.29507
C 31.93548 3.05544 7.69676
C 31.69045 3.33087 9.18197
H 32.78811 3.11416 10.12040
N 31.10772 4.77520 2.24171
C 30.50592 5.55415 3.16494
C 30.39944 6.88951 2.55696
C 30.83811 6.79521 1.13802
C 30.99441 5.36063 1.00521
C 29.99452 8.10783 3.33488
C 31.06539 7.82462 0.07271
O 31.21592 7.49845 -1.15764
C 31.01339 9.23093 0.49823
N 31.31086 2.38140 0.38816
C 31.15641 3.35060 -0.53094
C 31.28963 2.80082 -1.93108
C 31.80804 1.29821 -1.75511
C 31.79916 1.20636 -0.21339
C 30.01256 2.80323 -2.77100
C 33.10783 0.90906 -2.51127
C 34.28709 1.65323 -1.92736
N 31.96219 0.75046 2.72336
C 32.09373 -0.25390 1.73947
C 32.26515 -1.53840 2.44876
C 32.19788 -1.19260 3.80684
C 31.97841 0.20561 3.93470
C 32.40489 -2.81523 1.83532
C 32.25201 -1.69401 5.16122
O 32.50195 -2.78376 5.67475
C 31.76094 -0.54623 6.14502
C 32.74321 -0.45609 7.28059
O 33.91465 -0.09233 7.07562
O 32.08523 -0.60269 8.44504
C 33.01549 -0.50975 9.60167
H 29.32313 5.83110 4.89771
H 30.97739 5.21417 -1.09348
H 32.25799 -0.86406 -0.17162
H 30.18379 1.76505 7.56243
H 29.79329 4.51251 7.07657
H 28.17609 2.08634 6.41437
H 27.96214 3.45128 5.29837
H 27.60966 3.70258 6.98130
H 32.12556 4.07763 7.34497
H 32.79347 2.42167 7.58352
H 30.77405 2.84966 9.54472
H 31.50086 4.39936 9.31008
H 29.57292 7.83975 4.31150
H 29.15963 8.56853 2.79582
H 30.80216 8.83733 3.42559
H 30.04224 9.43852 0.94123
H 31.28781 9.81336 -0.38345
H 31.75848 9.38569 1.28658
H 32.02249 3.36123 -2.49849
H 31.07017 0.56751 -2.11770
H 30.11754 3.35648 -3.72335
H 29.21253 3.22129 -2.17457
H 29.62305 1.81811 -3.02202
H 33.04006 1.20880 -3.55995
H 33.31563 -0.15560 -2.49342
H 34.24072 2.62334 -2.43118
H 35.21694 1.13519 -2.15328
H 34.14784 1.83182 -0.85481
H 33.19365 -3.33119 2.36649
H 32.63197 -2.72426 0.77516
H 31.40591 -3.22470 2.00748
H 30.76131 -0.81487 6.48875
H 32.88827 -1.42481 10.18833
H 32.77513 0.44702 10.10224
H 34.07862 -0.53818 9.39334

