%nproc=24
%mem=175gb
#p cam-b3lyp/Def2SVP td=(nstates=5)

TDDFT excited states in gaussian

0 1
Mg 0.00000 0.00000 0.00000
C -0.21700 -2.21800 2.80100
C -1.25500 2.44200 2.02600
C -0.24500 1.85000 -2.56400
C 0.14600 -2.82400 -2.03700
N -0.61700 -0.00900 2.12600
C -0.59400 -0.90800 3.10500
C -0.93600 -0.30900 4.50200
C -1.77300 0.96400 4.03200
C -1.15500 1.16800 2.66000
C -3.26300 0.68500 3.86300
C 0.34500 0.11000 5.29900
C 0.12400 0.39700 6.78700
H 1.16800 0.03300 7.73300
N -0.18500 1.96100 -0.15200
C -0.70300 2.80000 0.77700
C -0.62000 4.15600 0.19300
C -0.18700 4.01500 -1.22500
C -0.21400 2.58300 -1.38000
C -0.88700 5.40600 0.97400
C 0.18100 5.01300 -2.27700
O 0.30300 4.69000 -3.50800
C 0.31000 6.41400 -1.83700
N -0.26500 -0.41300 -2.02900
C -0.27900 0.56900 -2.93700
C -0.19600 0.02400 -4.33200
C 0.12400 -1.53300 -4.18000
C 0.08600 -1.63200 -2.63500
C -1.45100 0.20500 -5.19700
C 1.37300 -2.07000 -4.92300
C 2.62600 -1.49000 -4.30600
N 0.15000 -2.14400 0.30300
C 0.17300 -3.13600 -0.68800
C 0.17300 -4.43800 0.00400
C 0.13300 -4.11100 1.35800
C 0.08300 -2.69500 1.50200
C 0.14900 -5.71500 -0.62300
C 0.09600 -4.62900 2.71600
O 0.20800 -5.74700 3.22100
C -0.25500 -3.42800 3.70100
C 0.71700 -3.48200 4.84800
O 1.93100 -3.25500 4.66900
O 0.03800 -3.55600 6.00300
C 0.94300 -3.58300 7.18300
H -1.85900 3.22000 2.49700
H -0.21800 2.45300 -3.47400
H 0.27600 -3.74700 -2.60500
H -1.55400 -0.94900 5.13200
H -1.58500 1.83100 4.66500
H -3.48400 -0.37700 3.96900
H -3.51100 1.02700 2.85800
H -3.85200 1.30100 4.54300
H 0.66900 1.09600 4.96600
H 1.13000 -0.63900 5.18900
H -0.84400 0.02600 7.12500
H 0.06200 1.47700 6.92100
H -1.34400 5.18600 1.93800
H -1.65100 5.96300 0.43200
H 0.00700 6.02000 1.08400
H -0.63500 6.74400 -1.40500
H 0.66500 6.97000 -2.70400
H 1.04800 6.46600 -1.03600
H 0.60800 0.50100 -4.89100
H -0.69200 -2.15600 -4.54700
H -1.26700 0.74000 -6.12900
H -2.20400 0.71400 -4.59600
H -1.96700 -0.72000 -5.45300
H 1.35600 -1.75900 -5.96700
H 1.45200 -3.15700 -4.90200
H 2.71400 -0.52200 -4.79800
H 3.48700 -2.12100 -4.52900
H 2.49500 -1.30300 -3.24000
H 0.86700 -6.33300 -0.08400
H 0.40400 -5.64200 -1.68000
H -0.89100 -5.99900 -0.46300
H -1.28300 -3.58100 4.02800
H 0.69800 -4.47800 7.75500
H 0.83300 -2.61900 7.68000
H 2.00000 -3.75400 6.97600
Mg 8.92857 0.80653 0.66999
C 9.94822 -1.86645 -1.49670
C 10.15928 2.96812 -1.66400
C 8.45473 3.16012 2.74447
C 8.83618 -1.51796 3.26497
N 9.90342 0.47302 -1.28723
C 10.18202 -0.58397 -2.03522
C 10.66779 -0.24632 -3.47035
C 11.22704 1.23328 -3.19303
C 10.35531 1.60348 -1.99483
C 12.68073 1.25409 -2.75067
C 9.49335 -0.23084 -4.51076
C 9.93283 -0.21414 -5.97648
H 9.12660 -0.94111 -6.95319
N 8.80220 2.76606 0.38221
C 9.34236 3.47634 -0.63022
C 8.98031 4.87925 -0.37546
C 8.32268 4.95942 0.95714
C 8.52412 3.60529 1.43239
C 9.19206 5.97038 -1.38442
C 7.63844 6.07423 1.68871
O 7.34961 5.98482 2.93427
C 7.40068 7.30927 0.92737
N 8.88598 0.86745 2.74768
C 8.60639 2.00935 3.40024
C 8.36038 1.75271 4.86789
C 8.29479 0.16214 5.02081
C 8.61716 -0.24542 3.56638
C 9.41095 2.31298 5.82642
C 7.02343 -0.42875 5.68951
C 5.82248 -0.21093 4.79753
N 9.13416 -1.33702 0.84607
C 9.08668 -2.10400 2.03079
C 9.39303 -3.50030 1.65805
C 9.62192 -3.44435 0.27495
C 9.48886 -2.10419 -0.17867
C 9.47857 -4.60139 2.55604
C 9.95629 -4.21253 -0.90268
O 10.10064 -5.40973 -1.14683
C 10.30674 -3.20472 -2.08076
C 9.56675 -3.65313 -3.31116
O 8.32410 -3.62093 -3.34822
O 10.44705 -3.83849 -4.31171
C 9.75953 -4.27321 -5.55677
H 10.71592 3.72218 -2.22116
H 8.18370 3.91606 3.48514
H 8.73094 -2.31851 4.00030
H 11.46343 -0.88101 -3.84170
H 11.02473 1.89547 -4.03084
H 13.06461 0.25906 -2.58130
H 12.70103 1.82858 -1.83384
H 13.28573 1.81325 -3.47015
H 8.98042 0.73807 -4.45735
H 8.82508 -1.05303 -4.34323
H 10.99434 -0.46501 -6.09140
H 9.85757 0.81011 -6.34967
H 9.84491 5.64095 -2.20214
H 9.76094 6.76194 -0.88475
H 8.25403 6.38933 -1.75489
H 8.34935 7.69903 0.56600
H 6.82301 7.95525 1.59135
H 6.80309 7.06493 0.04204
H 7.41349 2.17519 5.18095
H 9.11594 -0.22148 5.64402
H 8.98802 2.99725 6.58601
H 10.17152 2.81529 5.24353
H 9.98964 1.56504 6.36578
H 6.81212 0.09137 6.62705
H 7.10790 -1.48562 5.91951
H 5.51842 0.81210 5.03849
H 5.03476 -0.92309 5.03494
H 6.10945 -0.22902 3.73971
H 8.96631 -5.42897 2.08359
H 9.04042 -4.36119 3.52252
H 10.56369 -4.72070 2.61554
H 11.38799 -3.22887 -2.22177
H 10.22916 -5.21063 -5.87042
H 9.83156 -3.41625 -6.25260
H 8.72116 -4.57308 -5.47736

