%nproc=24
%mem=175gb
#p cam-b3lyp/Def2SVP td=(nstates=5)

TDDFT excited states in gaussian

0 1
Mg 0.00000 0.00000 0.00000
C -0.21700 -2.21800 2.80100
C -1.25500 2.44200 2.02600
C -0.24500 1.85000 -2.56400
C 0.14600 -2.82400 -2.03700
N -0.61700 -0.00900 2.12600
C -0.59400 -0.90800 3.10500
C -0.93600 -0.30900 4.50200
C -1.77300 0.96400 4.03200
C -1.15500 1.16800 2.66000
C -3.26300 0.68500 3.86300
C 0.34500 0.11000 5.29900
C 0.12400 0.39700 6.78700
H 1.16800 0.03300 7.73300
N -0.18500 1.96100 -0.15200
C -0.70300 2.80000 0.77700
C -0.62000 4.15600 0.19300
C -0.18700 4.01500 -1.22500
C -0.21400 2.58300 -1.38000
C -0.88700 5.40600 0.97400
C 0.18100 5.01300 -2.27700
O 0.30300 4.69000 -3.50800
C 0.31000 6.41400 -1.83700
N -0.26500 -0.41300 -2.02900
C -0.27900 0.56900 -2.93700
C -0.19600 0.02400 -4.33200
C 0.12400 -1.53300 -4.18000
C 0.08600 -1.63200 -2.63500
C -1.45100 0.20500 -5.19700
C 1.37300 -2.07000 -4.92300
C 2.62600 -1.49000 -4.30600
N 0.15000 -2.14400 0.30300
C 0.17300 -3.13600 -0.68800
C 0.17300 -4.43800 0.00400
C 0.13300 -4.11100 1.35800
C 0.08300 -2.69500 1.50200
C 0.14900 -5.71500 -0.62300
C 0.09600 -4.62900 2.71600
O 0.20800 -5.74700 3.22100
C -0.25500 -3.42800 3.70100
C 0.71700 -3.48200 4.84800
O 1.93100 -3.25500 4.66900
O 0.03800 -3.55600 6.00300
C 0.94300 -3.58300 7.18300
H -1.85900 3.22000 2.49700
H -0.21800 2.45300 -3.47400
H 0.27600 -3.74700 -2.60500
H -1.55400 -0.94900 5.13200
H -1.58500 1.83100 4.66500
H -3.48400 -0.37700 3.96900
H -3.51100 1.02700 2.85800
H -3.85200 1.30100 4.54300
H 0.66900 1.09600 4.96600
H 1.13000 -0.63900 5.18900
H -0.84400 0.02600 7.12500
H 0.06200 1.47700 6.92100
H -1.34400 5.18600 1.93800
H -1.65100 5.96300 0.43200
H 0.00700 6.02000 1.08400
H -0.63500 6.74400 -1.40500
H 0.66500 6.97000 -2.70400
H 1.04800 6.46600 -1.03600
H 0.60800 0.50100 -4.89100
H -0.69200 -2.15600 -4.54700
H -1.26700 0.74000 -6.12900
H -2.20400 0.71400 -4.59600
H -1.96700 -0.72000 -5.45300
H 1.35600 -1.75900 -5.96700
H 1.45200 -3.15700 -4.90200
H 2.71400 -0.52200 -4.79800
H 3.48700 -2.12100 -4.52900
H 2.49500 -1.30300 -3.24000
H 0.86700 -6.33300 -0.08400
H 0.40400 -5.64200 -1.68000
H -0.89100 -5.99900 -0.46300
H -1.28300 -3.58100 4.02800
H 0.69800 -4.47800 7.75500
H 0.83300 -2.61900 7.68000
H 2.00000 -3.75400 6.97600
Mg 8.94200 0.80510 0.67151
C 8.51303 4.19361 -0.42989
C 8.39038 -0.15572 -2.55450
C 8.86672 -2.20090 1.68428
C 8.32563 1.92721 3.91291
N 8.51836 1.96238 -1.16519
C 8.44005 3.24803 -1.47393
C 8.35465 3.53993 -2.99612
C 7.75308 2.13102 -3.47776
C 8.27877 1.24305 -2.35178
C 6.23433 2.08502 -3.45285
C 9.76296 3.81094 -3.63269
C 9.72788 4.40446 -5.04275
H 10.75867 5.36835 -5.41805
N 9.15492 -0.89386 -0.33187
C 8.90785 -1.10144 -1.64227
C 9.19999 -2.52240 -1.88659
C 9.48143 -3.17499 -0.57906
C 9.15099 -2.09627 0.33048
C 9.27153 -3.11315 -3.26475
C 9.95565 -4.54745 -0.20804
O 9.90329 -4.97445 0.99933
C 10.39605 -5.41017 -1.31406
N 8.43275 -0.05645 2.49380
C 8.53797 -1.38326 2.68464
C 8.38418 -1.73830 4.14432
C 8.39487 -0.34476 4.92887
C 8.46652 0.62200 3.72652
C 7.12136 -2.51812 4.50980
C 9.43898 -0.18638 6.06791
C 10.83504 -0.16085 5.48846
N 8.68090 2.72377 1.62996
C 8.40684 2.96563 2.99395
C 8.19973 4.42051 3.14509
C 8.34610 4.92534 1.84424
C 8.60476 3.85785 0.94255
C 7.87089 5.09261 4.35599
C 8.33007 6.11731 1.02713
O 8.24657 7.32394 1.25250
C 8.31208 5.68193 -0.50144
C 9.34834 6.49471 -1.22812
O 10.55657 6.35661 -0.96790
O 8.76340 7.13773 -2.25513
C 9.75306 7.94879 -3.01313
H 8.00706 -0.57746 -3.48406
H 8.93741 -3.20682 2.10454
H 8.22613 2.36750 4.90736
H 7.68114 4.34403 -3.26737
H 8.17524 1.82677 -4.43199
H 5.81179 2.97038 -3.00147
H 5.97606 1.20638 -2.87635
H 5.84594 1.90945 -4.46015
H 10.25067 2.85084 -3.84504
H 10.35668 4.43443 -2.99286
H 8.73295 4.78386 -5.30564
H 9.90710 3.60143 -5.76181
H 8.85633 -2.43099 -4.01686
H 8.59654 -3.97575 -3.27832
H 10.27734 -3.44729 -3.52811
H 9.58008 -5.53450 -2.02202
H 10.78190 -6.31596 -0.84233
H 11.20508 -4.90361 -1.85209
H 9.21736 -2.34022 4.48578
H 7.43502 -0.15208 5.43027
H 7.33296 -3.48061 5.01269
H 6.54633 -2.67884 3.60755
H 6.41477 -1.98287 5.14181
H 9.39813 -1.04603 6.74133
H 9.28859 0.70271 6.67115
H 11.07205 -1.22228 5.36891
H 11.52624 0.32295 6.17564
H 10.83861 0.29216 4.49025
H 8.48380 5.98334 4.39402
H 8.03897 4.45613 5.22226
H 6.80795 5.28638 4.18904
H 7.30674 5.86538 -0.88250
H 9.37632 8.97610 -3.03265
H 9.87454 7.43823 -3.98696
H 10.73095 8.09056 -2.56805

