%nproc=24
%mem=175gb
#p cam-b3lyp/Def2SVP td=(nstates=5)

TDDFT excited states in gaussian

0 1
Mg 0.00000 0.00000 0.00000
C -0.21700 -2.21800 2.80100
C -1.25500 2.44200 2.02600
C -0.24500 1.85000 -2.56400
C 0.14600 -2.82400 -2.03700
N -0.61700 -0.00900 2.12600
C -0.59400 -0.90800 3.10500
C -0.93600 -0.30900 4.50200
C -1.77300 0.96400 4.03200
C -1.15500 1.16800 2.66000
C -3.26300 0.68500 3.86300
C 0.34500 0.11000 5.29900
C 0.12400 0.39700 6.78700
H 1.16800 0.03300 7.73300
N -0.18500 1.96100 -0.15200
C -0.70300 2.80000 0.77700
C -0.62000 4.15600 0.19300
C -0.18700 4.01500 -1.22500
C -0.21400 2.58300 -1.38000
C -0.88700 5.40600 0.97400
C 0.18100 5.01300 -2.27700
O 0.30300 4.69000 -3.50800
C 0.31000 6.41400 -1.83700
N -0.26500 -0.41300 -2.02900
C -0.27900 0.56900 -2.93700
C -0.19600 0.02400 -4.33200
C 0.12400 -1.53300 -4.18000
C 0.08600 -1.63200 -2.63500
C -1.45100 0.20500 -5.19700
C 1.37300 -2.07000 -4.92300
C 2.62600 -1.49000 -4.30600
N 0.15000 -2.14400 0.30300
C 0.17300 -3.13600 -0.68800
C 0.17300 -4.43800 0.00400
C 0.13300 -4.11100 1.35800
C 0.08300 -2.69500 1.50200
C 0.14900 -5.71500 -0.62300
C 0.09600 -4.62900 2.71600
O 0.20800 -5.74700 3.22100
C -0.25500 -3.42800 3.70100
C 0.71700 -3.48200 4.84800
O 1.93100 -3.25500 4.66900
O 0.03800 -3.55600 6.00300
C 0.94300 -3.58300 7.18300
H -1.85900 3.22000 2.49700
H -0.21800 2.45300 -3.47400
H 0.27600 -3.74700 -2.60500
H -1.55400 -0.94900 5.13200
H -1.58500 1.83100 4.66500
H -3.48400 -0.37700 3.96900
H -3.51100 1.02700 2.85800
H -3.85200 1.30100 4.54300
H 0.66900 1.09600 4.96600
H 1.13000 -0.63900 5.18900
H -0.84400 0.02600 7.12500
H 0.06200 1.47700 6.92100
H -1.34400 5.18600 1.93800
H -1.65100 5.96300 0.43200
H 0.00700 6.02000 1.08400
H -0.63500 6.74400 -1.40500
H 0.66500 6.97000 -2.70400
H 1.04800 6.46600 -1.03600
H 0.60800 0.50100 -4.89100
H -0.69200 -2.15600 -4.54700
H -1.26700 0.74000 -6.12900
H -2.20400 0.71400 -4.59600
H -1.96700 -0.72000 -5.45300
H 1.35600 -1.75900 -5.96700
H 1.45200 -3.15700 -4.90200
H 2.71400 -0.52200 -4.79800
H 3.48700 -2.12100 -4.52900
H 2.49500 -1.30300 -3.24000
H 0.86700 -6.33300 -0.08400
H 0.40400 -5.64200 -1.68000
H -0.89100 -5.99900 -0.46300
H -1.28300 -3.58100 4.02800
H 0.69800 -4.47800 7.75500
H 0.83300 -2.61900 7.68000
H 2.00000 -3.75400 6.97600
Mg 8.93424 0.80901 0.68819
C 7.18044 -1.63295 2.64781
C 6.46731 3.01816 1.50579
C 10.20743 2.84541 -1.38533
C 10.59051 -1.83293 -0.86831
N 7.11222 0.60127 1.92485
C 6.58126 -0.35627 2.67021
C 5.38520 0.10049 3.54792
C 4.92114 1.36967 2.68035
C 6.25379 1.71357 2.01818
C 3.92203 1.02042 1.58987
C 5.83056 0.52351 4.99178
C 4.68723 0.68482 5.99604
H 4.92321 0.30525 7.38626
N 8.70887 2.77299 0.51345
C 7.65445 3.51046 0.92040
C 7.96490 4.89830 0.54399
C 9.21385 4.89665 -0.26523
C 9.41827 3.47166 -0.43161
C 7.15489 6.07031 1.01696
C 10.07394 5.99590 -0.81122
O 10.98089 5.76883 -1.68798
C 9.76094 7.35932 -0.35889
N 10.05620 0.54292 -1.04177
C 10.53001 1.59796 -1.72757
C 11.53287 1.16499 -2.77026
C 11.81566 -0.38172 -2.47822
C 10.81654 -0.60781 -1.32236
C 11.09608 1.33640 -4.22499
C 13.29695 -0.79869 -2.26701
C 13.82401 -0.19870 -0.98342
N 9.05092 -1.33095 0.96207
C 9.78437 -2.25194 0.18238
C 9.45844 -3.60301 0.68320
C 8.53302 -3.37387 1.71256
C 8.28342 -1.97986 1.83059
C 9.95961 -4.82783 0.15900
C 7.70249 -3.99502 2.71908
O 7.56275 -5.14128 3.14369
C 6.69401 -2.90476 3.28537
C 6.71493 -2.98825 4.78707
O 7.74358 -2.69621 5.42206
O 5.46181 -3.18718 5.23483
C 5.42938 -3.26586 6.71961
H 5.63408 3.72141 1.51354
H 10.75595 3.51191 -2.05494
H 11.13982 -2.70231 -1.23587
H 4.57577 -0.61592 3.62108
H 4.59091 2.18505 3.31868
H 3.77826 -0.04621 1.50176
H 4.33346 1.42367 0.67381
H 2.98064 1.55165 1.75693
H 6.20294 1.55564 4.96364
H 6.55979 -0.16004 5.38116
H 3.75217 0.24323 5.63052
H 4.46018 1.74906 6.09538
H 6.20351 5.74959 1.45904
H 6.86308 6.63754 0.12648
H 7.71496 6.72677 1.68632
H 8.73265 7.59896 -0.61901
H 10.53871 7.99490 -0.78665
H 9.82386 7.38821 0.73465
H 12.45923 1.71691 -2.66855
H 11.48397 -1.02068 -3.30982
H 11.78965 1.96185 -4.81815
H 10.10011 1.75888 -4.23481
H 10.95907 0.40893 -4.77837
H 13.92018 -0.40372 -3.07308
H 13.44399 -1.87331 -2.24329
H 14.11326 0.81268 -1.28430
H 14.68083 -0.76274 -0.62043
H 13.02720 -0.10519 -0.23643
H 10.22116 -5.44583 1.00763
H 10.81579 -4.66120 -0.49136
H 9.08405 -5.17525 -0.39594
H 5.70759 -3.12732 2.87668
H 4.95399 -4.21691 6.97885
H 4.92371 -2.34155 7.05678
H 6.37711 -3.35504 7.23760

