%nproc=24
%mem=175gb
#p cam-b3lyp/Def2SVP td=(nstates=5)

TDDFT excited states in gaussian

0 1
Mg 0.00000 0.00000 0.00000
C -0.21700 -2.21800 2.80100
C -1.25500 2.44200 2.02600
C -0.24500 1.85000 -2.56400
C 0.14600 -2.82400 -2.03700
N -0.61700 -0.00900 2.12600
C -0.59400 -0.90800 3.10500
C -0.93600 -0.30900 4.50200
C -1.77300 0.96400 4.03200
C -1.15500 1.16800 2.66000
C -3.26300 0.68500 3.86300
C 0.34500 0.11000 5.29900
C 0.12400 0.39700 6.78700
H 1.16800 0.03300 7.73300
N -0.18500 1.96100 -0.15200
C -0.70300 2.80000 0.77700
C -0.62000 4.15600 0.19300
C -0.18700 4.01500 -1.22500
C -0.21400 2.58300 -1.38000
C -0.88700 5.40600 0.97400
C 0.18100 5.01300 -2.27700
O 0.30300 4.69000 -3.50800
C 0.31000 6.41400 -1.83700
N -0.26500 -0.41300 -2.02900
C -0.27900 0.56900 -2.93700
C -0.19600 0.02400 -4.33200
C 0.12400 -1.53300 -4.18000
C 0.08600 -1.63200 -2.63500
C -1.45100 0.20500 -5.19700
C 1.37300 -2.07000 -4.92300
C 2.62600 -1.49000 -4.30600
N 0.15000 -2.14400 0.30300
C 0.17300 -3.13600 -0.68800
C 0.17300 -4.43800 0.00400
C 0.13300 -4.11100 1.35800
C 0.08300 -2.69500 1.50200
C 0.14900 -5.71500 -0.62300
C 0.09600 -4.62900 2.71600
O 0.20800 -5.74700 3.22100
C -0.25500 -3.42800 3.70100
C 0.71700 -3.48200 4.84800
O 1.93100 -3.25500 4.66900
O 0.03800 -3.55600 6.00300
C 0.94300 -3.58300 7.18300
H -1.85900 3.22000 2.49700
H -0.21800 2.45300 -3.47400
H 0.27600 -3.74700 -2.60500
H -1.55400 -0.94900 5.13200
H -1.58500 1.83100 4.66500
H -3.48400 -0.37700 3.96900
H -3.51100 1.02700 2.85800
H -3.85200 1.30100 4.54300
H 0.66900 1.09600 4.96600
H 1.13000 -0.63900 5.18900
H -0.84400 0.02600 7.12500
H 0.06200 1.47700 6.92100
H -1.34400 5.18600 1.93800
H -1.65100 5.96300 0.43200
H 0.00700 6.02000 1.08400
H -0.63500 6.74400 -1.40500
H 0.66500 6.97000 -2.70400
H 1.04800 6.46600 -1.03600
H 0.60800 0.50100 -4.89100
H -0.69200 -2.15600 -4.54700
H -1.26700 0.74000 -6.12900
H -2.20400 0.71400 -4.59600
H -1.96700 -0.72000 -5.45300
H 1.35600 -1.75900 -5.96700
H 1.45200 -3.15700 -4.90200
H 2.71400 -0.52200 -4.79800
H 3.48700 -2.12100 -4.52900
H 2.49500 -1.30300 -3.24000
H 0.86700 -6.33300 -0.08400
H 0.40400 -5.64200 -1.68000
H -0.89100 -5.99900 -0.46300
H -1.28300 -3.58100 4.02800
H 0.69800 -4.47800 7.75500
H 0.83300 -2.61900 7.68000
H 2.00000 -3.75400 6.97600
Mg 8.94298 0.80816 0.67409
C 11.44318 -1.34790 2.08104
C 10.60930 3.42180 2.09777
C 6.52259 2.67983 -0.16612
C 6.90248 -1.99866 0.35183
N 10.77763 0.89833 1.90623
C 11.67753 0.02138 2.32515
C 12.93713 0.65339 2.97595
C 12.29642 2.05453 3.42891
C 11.17708 2.15710 2.39487
C 11.66694 2.00953 4.81132
C 14.10206 0.86087 1.94546
C 15.46183 1.18421 2.56853
H 16.66391 0.65833 1.92749
N 8.84704 2.78269 0.49920
C 9.61452 3.69399 1.13307
C 9.13527 5.00884 0.67957
C 7.91471 4.80376 -0.14680
C 7.69741 3.38478 0.05159
C 9.86744 6.28655 0.97077
C 7.07387 5.73369 -0.96804
O 5.92199 5.38675 -1.41034
C 7.59755 7.09393 -1.16036
N 6.92026 0.44262 0.36213
C 6.09612 1.42214 -0.04926
C 4.75640 0.86691 -0.47028
C 4.93524 -0.72224 -0.48456
C 6.38478 -0.81849 0.03980
C 3.57238 1.23754 0.42253
C 4.57603 -1.45906 -1.80393
C 5.55999 -1.08429 -2.88872
N 9.17346 -1.32229 0.94997
C 8.18370 -2.31582 0.78458
C 8.78362 -3.60105 1.19776
C 10.08377 -3.25981 1.59984
C 10.27365 -1.85774 1.46703
C 8.12106 -4.86073 1.21579
C 11.33525 -3.76536 2.11646
O 11.79237 -4.88477 2.34381
C 12.22952 -2.53226 2.57050
C 13.61308 -2.73252 2.01538
O 13.81017 -2.71481 0.78760
O 14.50245 -2.69441 3.02432
C 15.89043 -2.87738 2.52246
H 10.92398 4.28323 2.68751
H 5.68905 3.26374 -0.56328
H 6.36333 -2.93423 0.18846
H 13.31726 0.12172 3.84002
H 13.00419 2.87033 3.30687
H 11.64999 1.00763 5.21388
H 10.65947 2.38488 4.68816
H 12.17164 2.71420 5.47845
H 13.92544 1.78948 1.38757
H 14.19418 0.01044 1.29823
H 15.48044 0.98039 3.64605
H 15.62911 2.26164 2.49663
H 10.63889 6.14239 1.73725
H 9.14738 6.96901 1.43513
H 10.26959 6.75615 0.07054
H 7.74229 7.56555 -0.19129
H 6.90179 7.58062 -1.84660
H 8.58620 7.02536 -1.62779
H 4.49571 1.20018 -1.46732
H 4.29652 -1.21090 0.26583
H 2.75531 1.74483 -0.12438
H 3.93493 1.86133 1.22875
H 3.12066 0.40525 0.95961
H 3.59059 -1.14514 -2.15680
H 4.55300 -2.53901 -1.70306
H 5.16237 -0.13745 -3.26618
H 5.57838 -1.84338 -3.66813
H 6.55145 -0.88097 -2.46763
H 8.81428 -5.58303 0.80563
H 7.19415 -4.83060 0.64684
H 7.94087 -4.97100 2.28847
H 12.22539 -2.50849 3.66091
H 16.31913 -3.72274 3.06951
H 16.38443 -1.89523 2.64535
H 16.01342 -3.20495 1.49678

