%nproc=24
%mem=175gb
#p cam-b3lyp/Def2SVP td=(nstates=5)

TDDFT excited states in gaussian

0 1
Mg 31.53890 2.84330 2.40253
C 31.34466 0.44703 5.06697
C 30.28278 5.14633 4.58262
C 31.27360 4.85844 -0.03391
C 31.67995 0.15866 0.18475
N 30.93208 2.69523 4.52434
C 30.96089 1.74893 5.45065
C 30.63269 2.24290 6.88517
C 29.77941 3.54790 6.50079
C 30.38810 3.84337 5.13153
C 28.29808 3.26487 6.31396
C 31.92155 2.61809 7.69763
C 31.70123 2.81220 9.19947
H 32.75800 2.39627 10.11746
N 31.34620 4.81842 2.38465
C 30.83660 5.59518 3.36354
C 30.89672 6.97433 2.85512
C 31.33069 6.93124 1.43227
C 31.31321 5.50181 1.19452
C 30.63672 8.17279 3.72088
C 31.68830 8.00040 0.44474
O 31.80690 7.74893 -0.80647
C 31.80384 9.36788 0.97214
N 31.27123 2.55914 0.36048
C 31.24162 3.60429 -0.48492
C 31.31716 3.14594 -1.92179
C 31.64873 1.58278 -1.85724
C 31.61799 1.38058 -0.32637
C 30.05568 3.36428 -2.75689
C 32.89716 1.09516 -2.64230
C 34.15366 1.64640 -2.00770
N 31.70408 0.69548 2.56883
C 31.72003 -0.24302 1.51382
C 31.72982 -1.58709 2.12687
C 31.69536 -1.33558 3.50674
C 31.64576 0.06586 3.73701
C 31.71836 -2.82331 1.42137
C 31.67892 -1.93722 4.82069
O 31.79158 -3.08373 5.25261
C 31.32344 -0.81316 5.88677
C 32.30141 -0.92570 7.02406
O 33.50967 -0.69260 6.84406
O 31.62238 -1.07597 8.17588
C 32.54892 -1.18098 9.33447
H 29.68388 5.88638 5.11414
H 31.29332 5.51183 -0.90922
H 31.82266 -0.72769 -0.43710
H 30.02759 1.56270 7.47250
H 29.97577 4.36528 7.18977
H 28.08161 2.20770 6.35481
H 28.04220 3.66618 5.34210
H 27.71092 3.83502 7.03957
H 32.23636 3.63261 7.42124
H 32.69733 1.89497 7.53670
H 30.73082 2.42043 9.52775
H 31.64141 3.88359 9.40580
H 30.17895 7.88731 4.67605
H 29.86750 8.76930 3.21856
H 31.52603 8.79048 3.86323
H 30.86186 9.65876 1.43097
H 32.15288 9.97545 0.13494
H 32.55664 9.37334 1.76830
H 32.11640 3.65327 -2.44804
H 30.83044 0.97526 -2.27095
H 30.23350 3.96865 -3.66638
H 29.30795 3.83161 -2.12996
H 29.55162 2.45454 -3.07861
H 32.87351 1.47652 -3.66609
H 32.97450 0.01472 -2.70281
H 34.22854 2.64910 -2.43907
H 35.01558 1.03736 -2.27267
H 34.02953 1.76191 -0.92469
H 32.43516 -3.46837 1.91187
H 31.96220 -2.68351 0.37029
H 30.67600 -3.12017 1.56497
H 30.29627 -0.98303 6.21179
H 32.30782 -2.11418 9.85282
H 32.42258 -0.24117 9.90417
H 33.60223 -1.32276 9.12262

