%nproc=24
%mem=175gb
#p cam-b3lyp/Def2SVP td=(nstates=5)

TDDFT excited states in gaussian

0 1
Mg 0.00000 0.00000 0.00000
C -0.21700 -2.21800 2.80100
C -1.25500 2.44200 2.02600
C -0.24500 1.85000 -2.56400
C 0.14600 -2.82400 -2.03700
N -0.61700 -0.00900 2.12600
C -0.59400 -0.90800 3.10500
C -0.93600 -0.30900 4.50200
C -1.77300 0.96400 4.03200
C -1.15500 1.16800 2.66000
C -3.26300 0.68500 3.86300
C 0.34500 0.11000 5.29900
C 0.12400 0.39700 6.78700
H 1.16800 0.03300 7.73300
N -0.18500 1.96100 -0.15200
C -0.70300 2.80000 0.77700
C -0.62000 4.15600 0.19300
C -0.18700 4.01500 -1.22500
C -0.21400 2.58300 -1.38000
C -0.88700 5.40600 0.97400
C 0.18100 5.01300 -2.27700
O 0.30300 4.69000 -3.50800
C 0.31000 6.41400 -1.83700
N -0.26500 -0.41300 -2.02900
C -0.27900 0.56900 -2.93700
C -0.19600 0.02400 -4.33200
C 0.12400 -1.53300 -4.18000
C 0.08600 -1.63200 -2.63500
C -1.45100 0.20500 -5.19700
C 1.37300 -2.07000 -4.92300
C 2.62600 -1.49000 -4.30600
N 0.15000 -2.14400 0.30300
C 0.17300 -3.13600 -0.68800
C 0.17300 -4.43800 0.00400
C 0.13300 -4.11100 1.35800
C 0.08300 -2.69500 1.50200
C 0.14900 -5.71500 -0.62300
C 0.09600 -4.62900 2.71600
O 0.20800 -5.74700 3.22100
C -0.25500 -3.42800 3.70100
C 0.71700 -3.48200 4.84800
O 1.93100 -3.25500 4.66900
O 0.03800 -3.55600 6.00300
C 0.94300 -3.58300 7.18300
H -1.85900 3.22000 2.49700
H -0.21800 2.45300 -3.47400
H 0.27600 -3.74700 -2.60500
H -1.55400 -0.94900 5.13200
H -1.58500 1.83100 4.66500
H -3.48400 -0.37700 3.96900
H -3.51100 1.02700 2.85800
H -3.85200 1.30100 4.54300
H 0.66900 1.09600 4.96600
H 1.13000 -0.63900 5.18900
H -0.84400 0.02600 7.12500
H 0.06200 1.47700 6.92100
H -1.34400 5.18600 1.93800
H -1.65100 5.96300 0.43200
H 0.00700 6.02000 1.08400
H -0.63500 6.74400 -1.40500
H 0.66500 6.97000 -2.70400
H 1.04800 6.46600 -1.03600
H 0.60800 0.50100 -4.89100
H -0.69200 -2.15600 -4.54700
H -1.26700 0.74000 -6.12900
H -2.20400 0.71400 -4.59600
H -1.96700 -0.72000 -5.45300
H 1.35600 -1.75900 -5.96700
H 1.45200 -3.15700 -4.90200
H 2.71400 -0.52200 -4.79800
H 3.48700 -2.12100 -4.52900
H 2.49500 -1.30300 -3.24000
H 0.86700 -6.33300 -0.08400
H 0.40400 -5.64200 -1.68000
H -0.89100 -5.99900 -0.46300
H -1.28300 -3.58100 4.02800
H 0.69800 -4.47800 7.75500
H 0.83300 -2.61900 7.68000
H 2.00000 -3.75400 6.97600
Mg 8.94170 0.80796 0.67209
C 8.39718 4.34693 0.91345
C 8.28693 1.08563 -2.66389
C 8.97075 -2.36037 0.50383
C 8.42672 0.63426 4.11452
N 8.42250 2.54549 -0.59427
C 8.30447 3.85089 -0.40366
C 8.15408 4.68023 -1.70717
C 7.56505 3.52829 -2.65847
C 8.15293 2.30643 -1.95552
C 6.04975 3.42413 -2.61002
C 9.53056 5.21509 -2.23748
C 9.42823 6.28501 -3.32677
H 10.42263 7.35421 -3.34781
N 9.15251 -0.39308 -0.89368
C 8.85960 -0.11136 -2.18058
C 9.17284 -1.33123 -2.94082
C 9.51861 -2.40976 -1.97546
C 9.20022 -1.75434 -0.72280
C 9.20392 -1.36952 -4.44115
C 10.03644 -3.80515 -2.15133
O 10.03999 -4.64868 -1.18631
C 10.45242 -4.18371 -3.50970
N 8.52196 -0.68164 2.06036
C 8.66321 -1.98089 1.74429
C 8.57360 -2.85408 2.97307
C 8.58436 -1.84840 4.21648
C 8.58857 -0.50465 3.45509
C 7.34303 -3.75664 3.05949
C 9.66797 -2.08524 5.30384
C 11.03974 -1.79990 4.73619
N 8.67626 2.22799 2.27867
C 8.44986 1.94043 3.64254
C 8.21725 3.22909 4.32640
C 8.30232 4.18262 3.30071
C 8.54907 3.53226 2.06150
C 7.92090 3.39575 5.70862
C 8.22894 5.59054 2.98279
O 8.12806 6.62548 3.64040
C 8.16140 5.74895 1.40268
C 9.15098 6.80750 0.99928
O 10.37107 6.62485 1.15626
O 8.51304 7.76328 0.29937
C 9.45489 8.83017 -0.13246
H 7.87725 1.02333 -3.67244
H 9.07940 -3.44729 0.52040
H 8.35615 0.67326 5.20364
H 7.45333 5.50402 -1.64315
H 7.95657 3.61194 -3.66895
H 5.62585 4.06565 -1.85179
H 5.83303 2.38653 -2.39213
H 5.62667 3.61900 -3.59964
H 10.03041 4.41827 -2.80314
H 10.13488 5.57884 -1.42933
H 8.41590 6.70014 -3.40299
H 9.59693 5.81028 -4.29641
H 8.74531 -0.47287 -4.87600
H 8.54776 -2.18903 -4.75376
H 10.20582 -1.54823 -4.83727
H 9.61263 -4.06630 -4.19045
H 10.87574 -5.18576 -3.41710
H 11.22892 -3.48698 -3.84473
H 9.43220 -3.51043 3.04453
H 7.64063 -1.88725 4.78013
H 7.59470 -4.82885 3.16493
H 6.73723 -3.59313 2.17812
H 6.64992 -3.51672 3.86400
H 9.67179 -3.13344 5.61272
H 9.52174 -1.48687 6.19691
H 11.29492 -2.73368 4.22626
H 11.74630 -1.58001 5.53398
H 10.99496 -1.01099 3.97641
H 8.51537 4.23024 6.05608
H 8.13605 2.49095 6.27327
H 6.84836 3.60073 5.65480
H 7.13836 6.02525 1.14457
H 9.05549 9.77872 0.23960
H 9.54973 8.71906 -1.22900
H 10.44592 8.83144 0.30607

