%nproc=24
%mem=175gb
#p cam-b3lyp/Def2SVP td=(nstates=5)

TDDFT excited states in gaussian

0 1
Mg 0.00000 0.00000 0.00000
C -0.21700 -2.21800 2.80100
C -1.25500 2.44200 2.02600
C -0.24500 1.85000 -2.56400
C 0.14600 -2.82400 -2.03700
N -0.61700 -0.00900 2.12600
C -0.59400 -0.90800 3.10500
C -0.93600 -0.30900 4.50200
C -1.77300 0.96400 4.03200
C -1.15500 1.16800 2.66000
C -3.26300 0.68500 3.86300
C 0.34500 0.11000 5.29900
C 0.12400 0.39700 6.78700
H 1.16800 0.03300 7.73300
N -0.18500 1.96100 -0.15200
C -0.70300 2.80000 0.77700
C -0.62000 4.15600 0.19300
C -0.18700 4.01500 -1.22500
C -0.21400 2.58300 -1.38000
C -0.88700 5.40600 0.97400
C 0.18100 5.01300 -2.27700
O 0.30300 4.69000 -3.50800
C 0.31000 6.41400 -1.83700
N -0.26500 -0.41300 -2.02900
C -0.27900 0.56900 -2.93700
C -0.19600 0.02400 -4.33200
C 0.12400 -1.53300 -4.18000
C 0.08600 -1.63200 -2.63500
C -1.45100 0.20500 -5.19700
C 1.37300 -2.07000 -4.92300
C 2.62600 -1.49000 -4.30600
N 0.15000 -2.14400 0.30300
C 0.17300 -3.13600 -0.68800
C 0.17300 -4.43800 0.00400
C 0.13300 -4.11100 1.35800
C 0.08300 -2.69500 1.50200
C 0.14900 -5.71500 -0.62300
C 0.09600 -4.62900 2.71600
O 0.20800 -5.74700 3.22100
C -0.25500 -3.42800 3.70100
C 0.71700 -3.48200 4.84800
O 1.93100 -3.25500 4.66900
O 0.03800 -3.55600 6.00300
C 0.94300 -3.58300 7.18300
H -1.85900 3.22000 2.49700
H -0.21800 2.45300 -3.47400
H 0.27600 -3.74700 -2.60500
H -1.55400 -0.94900 5.13200
H -1.58500 1.83100 4.66500
H -3.48400 -0.37700 3.96900
H -3.51100 1.02700 2.85800
H -3.85200 1.30100 4.54300
H 0.66900 1.09600 4.96600
H 1.13000 -0.63900 5.18900
H -0.84400 0.02600 7.12500
H 0.06200 1.47700 6.92100
H -1.34400 5.18600 1.93800
H -1.65100 5.96300 0.43200
H 0.00700 6.02000 1.08400
H -0.63500 6.74400 -1.40500
H 0.66500 6.97000 -2.70400
H 1.04800 6.46600 -1.03600
H 0.60800 0.50100 -4.89100
H -0.69200 -2.15600 -4.54700
H -1.26700 0.74000 -6.12900
H -2.20400 0.71400 -4.59600
H -1.96700 -0.72000 -5.45300
H 1.35600 -1.75900 -5.96700
H 1.45200 -3.15700 -4.90200
H 2.71400 -0.52200 -4.79800
H 3.48700 -2.12100 -4.52900
H 2.49500 -1.30300 -3.24000
H 0.86700 -6.33300 -0.08400
H 0.40400 -5.64200 -1.68000
H -0.89100 -5.99900 -0.46300
H -1.28300 -3.58100 4.02800
H 0.69800 -4.47800 7.75500
H 0.83300 -2.61900 7.68000
H 2.00000 -3.75400 6.97600
Mg 13.14587 1.18775 0.99215
C 12.56105 4.60930 1.90324
C 12.42679 2.07665 -2.22147
C 13.21199 -1.89171 0.23058
C 12.69613 0.36240 4.34808
N 12.58164 3.12375 0.08341
C 12.45058 4.36808 0.51795
C 12.26589 5.42500 -0.60383
C 11.67423 4.46304 -1.74551
C 12.29029 3.14038 -1.29414
C 10.16150 4.32757 -1.69393
C 13.62557 6.07174 -1.04544
C 13.48979 7.32545 -1.91234
H 14.47001 8.39523 -1.74739
N 13.34324 0.30570 -0.77465
C 13.02332 0.81943 -1.98089
C 13.33804 -0.23080 -2.96177
C 13.71503 -1.46583 -2.22197
C 13.41131 -1.06250 -0.86360
C 13.34218 0.01390 -4.44282
C 14.24721 -2.79495 -2.66519
O 14.27908 -3.80456 -1.87620
C 14.64306 -2.90497 -4.07681
N 12.77049 -0.54256 2.08186
C 12.92239 -1.75692 1.52491
C 12.86632 -2.84667 2.56878
C 12.88705 -2.09240 3.97883
C 12.86032 -0.62966 3.48377
C 11.64907 -3.76883 2.50306
C 13.99328 -2.51202 4.98524
C 15.35071 -2.10339 4.46010
N 12.89186 2.27635 2.84107
C 12.69409 1.73418 4.12987
C 12.45770 2.86759 5.04743
C 12.51193 3.99803 4.21818
C 12.74421 3.59601 2.87507
C 12.18458 2.76693 6.44077
C 12.41491 5.43926 4.17190
O 12.31296 6.33053 5.01391
C 12.31650 5.89055 2.65104
C 13.28505 7.02161 2.43856
O 14.51002 6.83212 2.53938
O 12.62236 8.08159 1.94092
C 13.54257 9.22543 1.70284
H 11.99956 2.19840 -3.21723
H 13.33469 -2.96053 0.04075
H 12.64499 0.19501 5.42606
H 11.55605 6.21086 -0.37511
H 12.04612 4.74120 -2.72820
H 9.74344 4.80844 -0.82208
H 9.96197 3.26421 -1.67173
H 9.71797 4.69811 -2.62254
H 14.12505 5.40339 -1.75858
H 14.23990 6.28677 -0.19281
H 12.47106 7.73138 -1.89335
H 13.64675 7.04404 -2.95646
H 12.86437 0.96887 -4.69408
H 12.69086 -0.74263 -4.89373
H 14.33886 -0.07130 -4.88103
H 13.78954 -2.67514 -4.71018
H 15.08066 -3.89972 -4.18092
H 15.40441 -2.14547 -4.28688
H 13.73433 -3.49105 2.50215
H 11.95435 -2.25141 4.53973
H 11.91619 -4.83762 2.40103
H 11.02524 -3.45233 1.67771
H 10.96780 -3.69532 3.34902
H 14.01602 -3.59939 5.09136
H 13.85582 -2.09445 5.97707
H 15.60834 -2.92059 3.77974
H 16.06889 -2.02607 5.27391
H 15.28206 -1.18662 3.86304
H 12.77467 3.53065 6.92968
H 12.42145 1.77572 6.82176
H 11.10871 2.96131 6.44317
H 11.28550 6.19413 2.46545
H 13.13804 10.08074 2.25283
H 13.61875 9.32377 0.60363
H 14.54135 9.16004 2.11830

