%nproc=24
%mem=175gb
#p cam-b3lyp/Def2SVP td=(nstates=5)

TDDFT excited states in gaussian

0 1
Mg 0.00000 0.00000 0.00000
C -0.21700 -2.21800 2.80100
C -1.25500 2.44200 2.02600
C -0.24500 1.85000 -2.56400
C 0.14600 -2.82400 -2.03700
N -0.61700 -0.00900 2.12600
C -0.59400 -0.90800 3.10500
C -0.93600 -0.30900 4.50200
C -1.77300 0.96400 4.03200
C -1.15500 1.16800 2.66000
C -3.26300 0.68500 3.86300
C 0.34500 0.11000 5.29900
C 0.12400 0.39700 6.78700
H 1.16800 0.03300 7.73300
N -0.18500 1.96100 -0.15200
C -0.70300 2.80000 0.77700
C -0.62000 4.15600 0.19300
C -0.18700 4.01500 -1.22500
C -0.21400 2.58300 -1.38000
C -0.88700 5.40600 0.97400
C 0.18100 5.01300 -2.27700
O 0.30300 4.69000 -3.50800
C 0.31000 6.41400 -1.83700
N -0.26500 -0.41300 -2.02900
C -0.27900 0.56900 -2.93700
C -0.19600 0.02400 -4.33200
C 0.12400 -1.53300 -4.18000
C 0.08600 -1.63200 -2.63500
C -1.45100 0.20500 -5.19700
C 1.37300 -2.07000 -4.92300
C 2.62600 -1.49000 -4.30600
N 0.15000 -2.14400 0.30300
C 0.17300 -3.13600 -0.68800
C 0.17300 -4.43800 0.00400
C 0.13300 -4.11100 1.35800
C 0.08300 -2.69500 1.50200
C 0.14900 -5.71500 -0.62300
C 0.09600 -4.62900 2.71600
O 0.20800 -5.74700 3.22100
C -0.25500 -3.42800 3.70100
C 0.71700 -3.48200 4.84800
O 1.93100 -3.25500 4.66900
O 0.03800 -3.55600 6.00300
C 0.94300 -3.58300 7.18300
H -1.85900 3.22000 2.49700
H -0.21800 2.45300 -3.47400
H 0.27600 -3.74700 -2.60500
H -1.55400 -0.94900 5.13200
H -1.58500 1.83100 4.66500
H -3.48400 -0.37700 3.96900
H -3.51100 1.02700 2.85800
H -3.85200 1.30100 4.54300
H 0.66900 1.09600 4.96600
H 1.13000 -0.63900 5.18900
H -0.84400 0.02600 7.12500
H 0.06200 1.47700 6.92100
H -1.34400 5.18600 1.93800
H -1.65100 5.96300 0.43200
H 0.00700 6.02000 1.08400
H -0.63500 6.74400 -1.40500
H 0.66500 6.97000 -2.70400
H 1.04800 6.46600 -1.03600
H 0.60800 0.50100 -4.89100
H -0.69200 -2.15600 -4.54700
H -1.26700 0.74000 -6.12900
H -2.20400 0.71400 -4.59600
H -1.96700 -0.72000 -5.45300
H 1.35600 -1.75900 -5.96700
H 1.45200 -3.15700 -4.90200
H 2.71400 -0.52200 -4.79800
H 3.48700 -2.12100 -4.52900
H 2.49500 -1.30300 -3.24000
H 0.86700 -6.33300 -0.08400
H 0.40400 -5.64200 -1.68000
H -0.89100 -5.99900 -0.46300
H -1.28300 -3.58100 4.02800
H 0.69800 -4.47800 7.75500
H 0.83300 -2.61900 7.68000
H 2.00000 -3.75400 6.97600
Mg 8.93956 0.80924 0.68640
C 8.40076 -1.44728 3.42444
C 7.40380 3.21131 2.55886
C 8.99348 2.69304 -1.86621
C 9.37554 -1.98543 -1.34963
N 8.05929 0.76615 2.71507
C 7.96766 -0.13058 3.68555
C 7.45286 0.43424 5.03667
C 6.65531 1.71019 4.47566
C 7.43825 1.93951 3.18450
C 5.21189 1.40515 4.11121
C 8.62307 0.86209 5.99039
C 8.20687 1.13188 7.43805
H 9.13448 0.77318 8.50733
N 8.74752 2.77906 0.53970
C 8.11233 3.60111 1.40111
C 8.23643 4.95252 0.83327
C 8.85378 4.83946 -0.51610
C 8.87014 3.39954 -0.67869
C 7.86282 6.19196 1.59329
C 9.33631 5.85903 -1.50294
O 9.61882 5.54408 -2.71283
C 9.37918 7.25295 -1.03748
N 8.94318 0.41734 -1.35535
C 9.02321 1.41697 -2.25103
C 9.28779 0.88543 -3.63950
C 9.61065 -0.66938 -3.45001
C 9.37925 -0.79222 -1.92792
C 8.14669 1.04935 -4.64320
C 10.95229 -1.18631 -4.03777
C 12.11351 -0.59214 -3.27362
N 9.08508 -1.32557 0.98549
C 9.24121 -2.31732 -0.00755
C 9.17259 -3.62767 0.67121
C 8.95657 -3.30528 2.01950
C 8.87475 -1.89427 2.16735
C 9.25609 -4.89885 0.03619
C 8.76855 -3.83813 3.34969
O 8.82539 -4.95970 3.85226
C 8.27407 -2.66342 4.29941
C 9.09422 -2.70846 5.55951
O 10.31525 -2.47464 5.52761
O 8.26989 -2.80465 6.61857
C 9.03623 -2.84150 7.89261
H 6.73895 3.97275 2.96761
H 9.12701 3.30033 -2.76446
H 9.60028 -2.90156 -1.89998
H 6.77695 -0.21977 5.57443
H 6.75799 2.56384 5.14057
H 4.99372 0.34970 4.17876
H 5.08533 1.75334 3.09445
H 4.53346 2.00708 4.72255
H 8.96976 1.86358 5.70481
H 9.41450 0.13829 5.97084
H 7.20239 0.74933 7.65628
H 8.11862 2.21197 7.57821
H 7.28393 5.95246 2.49380
H 7.16531 6.75501 0.96376
H 8.72464 6.82381 1.81846
H 8.38456 7.55912 -0.72213
H 9.83424 7.81929 -1.85238
H 10.02076 7.30614 -0.15082
H 10.14842 1.37164 -4.08224
H 8.85489 -1.30453 -3.93504
H 8.44152 1.60728 -5.55197
H 7.32223 1.54211 -4.14521
H 7.69086 0.11986 -4.98006
H 11.06280 -0.85874 -5.07442
H 11.03875 -2.26773 -4.03080
H 12.24275 0.38746 -3.74350
H 13.00381 -1.20667 -3.39086
H 11.84786 -0.42172 -2.22384
H 9.90327 -5.51144 0.64970
H 9.63577 -4.81163 -0.97968
H 8.20440 -5.19681 0.05717
H 7.21337 -2.82503 4.49531
H 8.73066 -3.74862 8.42312
H 8.83449 -1.87455 8.39066
H 10.10850 -2.98503 7.82854

