%nproc=24
%mem=175gb
#p cam-b3lyp/Def2SVP td=(nstates=5)

TDDFT excited states in gaussian

0 1
Mg 7.87574 0.71462 0.60461
C 9.87744 2.07754 3.25313
C 6.15409 -1.00707 2.99340
C 6.39396 -0.84425 -1.72813
C 10.42298 1.61554 -1.59666
N 8.08254 0.62956 2.80512
C 8.83876 1.23786 3.70647
C 8.40948 0.99186 5.17779
C 7.63760 -0.40143 4.97333
C 7.23118 -0.24320 3.50962
C 8.54523 -1.61480 5.08853
C 7.44661 2.10863 5.71419
C 7.23445 2.10136 7.22967
H 7.07291 3.38015 7.91601
N 6.18541 -0.32504 0.62627
C 5.62019 -0.93727 1.68787
C 4.39994 -1.58163 1.17802
C 4.37758 -1.43830 -0.30308
C 5.69048 -0.86939 -0.53271
C 3.35849 -2.17972 2.07863
C 3.35024 -1.77151 -1.34218
O 3.63555 -1.78323 -2.59170
C 2.02530 -2.17450 -0.84858
N 8.42624 0.23413 -1.34178
C 7.57440 -0.40362 -2.16371
C 8.08050 -0.39606 -3.58645
C 9.33684 0.59347 -3.59028
C 9.39674 0.93224 -2.08461
C 8.50028 -1.75330 -4.15042
C 9.30752 1.76417 -4.61071
C 8.21604 2.74300 -4.24199
N 9.71999 1.83269 0.73384
C 10.64947 2.06766 -0.30296
C 11.79891 2.77709 0.29531
C 11.46604 2.88613 1.65391
C 10.20779 2.26912 1.88971
C 12.97687 3.18184 -0.39368
C 11.89782 3.37353 2.94414
O 12.84150 4.05402 3.34431
C 10.94661 2.76030 4.06018
C 10.52699 3.87629 4.97725
O 9.81397 4.80484 4.55772
O 10.85236 3.55307 6.24218
C 10.44620 4.62433 7.19046
H 5.69971 -1.76276 3.63477
H 5.87556 -1.27207 -2.58937
H 11.21290 2.01757 -2.23468
H 9.22902 0.86412 5.87480
H 6.75796 -0.46262 5.60882
H 9.58462 -1.33398 5.17192
H 8.38035 -2.19204 4.18816
H 8.22136 -2.25047 5.91760
H 6.42405 1.89044 5.38027
H 7.77704 3.07965 5.40022
H 7.97472 1.47862 7.74653
H 6.27928 1.61586 7.44403
H 3.72757 -2.28446 3.10635
H 3.19749 -3.20945 1.74158
H 2.40859 -1.64233 2.03913
H 2.12843 -3.04818 -0.20944
H 1.40314 -2.28546 -1.73880
H 1.62654 -1.37023 -0.22029
H 7.32744 -0.01052 -4.26274
H 10.27101 0.06500 -3.83088
H 7.96098 -2.02664 -5.07698
H 8.34652 -2.50303 -3.38569
H 9.56280 -1.85592 -4.36424
H 9.06530 1.39068 -5.60871
H 10.25044 2.29545 -4.68576
H 7.32092 2.29077 -4.67941
H 8.41612 3.72093 -4.67519
H 8.07011 2.77907 -3.15614
H 13.20507 4.18460 -0.05766
H 12.83911 3.14486 -1.47230
H 13.67907 2.42069 -0.04321
H 11.51217 1.98963 4.58533
H 11.34267 4.91550 7.74657
H 9.60581 4.20380 7.77412
H 10.13946 5.57527 6.77086

