%nproc=24
%mem=175gb
#p cam-b3lyp/Def2SVP td=(nstates=5)

TDDFT excited states in gaussian

0 1
Mg 0.00000 0.00000 0.00000
C -0.21700 -2.21800 2.80100
C -1.25500 2.44200 2.02600
C -0.24500 1.85000 -2.56400
C 0.14600 -2.82400 -2.03700
N -0.61700 -0.00900 2.12600
C -0.59400 -0.90800 3.10500
C -0.93600 -0.30900 4.50200
C -1.77300 0.96400 4.03200
C -1.15500 1.16800 2.66000
C -3.26300 0.68500 3.86300
C 0.34500 0.11000 5.29900
C 0.12400 0.39700 6.78700
H 1.16800 0.03300 7.73300
N -0.18500 1.96100 -0.15200
C -0.70300 2.80000 0.77700
C -0.62000 4.15600 0.19300
C -0.18700 4.01500 -1.22500
C -0.21400 2.58300 -1.38000
C -0.88700 5.40600 0.97400
C 0.18100 5.01300 -2.27700
O 0.30300 4.69000 -3.50800
C 0.31000 6.41400 -1.83700
N -0.26500 -0.41300 -2.02900
C -0.27900 0.56900 -2.93700
C -0.19600 0.02400 -4.33200
C 0.12400 -1.53300 -4.18000
C 0.08600 -1.63200 -2.63500
C -1.45100 0.20500 -5.19700
C 1.37300 -2.07000 -4.92300
C 2.62600 -1.49000 -4.30600
N 0.15000 -2.14400 0.30300
C 0.17300 -3.13600 -0.68800
C 0.17300 -4.43800 0.00400
C 0.13300 -4.11100 1.35800
C 0.08300 -2.69500 1.50200
C 0.14900 -5.71500 -0.62300
C 0.09600 -4.62900 2.71600
O 0.20800 -5.74700 3.22100
C -0.25500 -3.42800 3.70100
C 0.71700 -3.48200 4.84800
O 1.93100 -3.25500 4.66900
O 0.03800 -3.55600 6.00300
C 0.94300 -3.58300 7.18300
H -1.85900 3.22000 2.49700
H -0.21800 2.45300 -3.47400
H 0.27600 -3.74700 -2.60500
H -1.55400 -0.94900 5.13200
H -1.58500 1.83100 4.66500
H -3.48400 -0.37700 3.96900
H -3.51100 1.02700 2.85800
H -3.85200 1.30100 4.54300
H 0.66900 1.09600 4.96600
H 1.13000 -0.63900 5.18900
H -0.84400 0.02600 7.12500
H 0.06200 1.47700 6.92100
H -1.34400 5.18600 1.93800
H -1.65100 5.96300 0.43200
H 0.00700 6.02000 1.08400
H -0.63500 6.74400 -1.40500
H 0.66500 6.97000 -2.70400
H 1.04800 6.46600 -1.03600
H 0.60800 0.50100 -4.89100
H -0.69200 -2.15600 -4.54700
H -1.26700 0.74000 -6.12900
H -2.20400 0.71400 -4.59600
H -1.96700 -0.72000 -5.45300
H 1.35600 -1.75900 -5.96700
H 1.45200 -3.15700 -4.90200
H 2.71400 -0.52200 -4.79800
H 3.48700 -2.12100 -4.52900
H 2.49500 -1.30300 -3.24000
H 0.86700 -6.33300 -0.08400
H 0.40400 -5.64200 -1.68000
H -0.89100 -5.99900 -0.46300
H -1.28300 -3.58100 4.02800
H 0.69800 -4.47800 7.75500
H 0.83300 -2.61900 7.68000
H 2.00000 -3.75400 6.97600
Mg 10.50447 0.94127 0.80527
C 9.74465 3.59903 3.09395
C 11.83110 -0.75593 3.44992
C 11.58922 -1.21732 -1.25173
C 10.17873 3.25877 -1.77713
N 10.70293 1.45917 2.94645
C 10.32230 2.47057 3.71230
C 10.50158 2.22742 5.23489
C 11.66083 1.11821 5.16641
C 11.36538 0.54093 3.78361
C 13.06016 1.71053 5.14769
C 9.20220 1.65956 5.90658
C 9.20360 1.68915 7.43657
H 7.94480 1.95123 8.12882
N 11.10598 -0.92660 1.10162
C 11.59543 -1.45228 2.24415
C 11.91090 -2.85623 1.93826
C 11.72200 -3.07203 0.47797
C 11.47986 -1.71212 0.03969
C 12.26696 -3.85945 2.99665
C 11.76626 -4.29758 -0.38359
O 11.80892 -4.22055 -1.66229
C 11.85248 -5.58787 0.31584
N 11.04486 1.05056 -1.19932
C 11.43339 -0.04728 -1.87143
C 11.50537 0.21906 -3.35611
C 10.84836 1.66191 -3.56611
C 10.57941 2.03454 -2.09160
C 12.90622 0.20416 -3.96749
C 9.67505 1.76024 -4.57920
C 8.47342 1.00979 -4.05166
N 9.86854 2.99893 0.63303
C 9.83364 3.78566 -0.53912
C 9.44063 5.15128 -0.13532
C 9.29538 5.06923 1.25775
C 9.59755 3.75093 1.69394
C 9.31139 6.27102 -1.00458
C 8.96547 5.80076 2.45972
O 8.54497 6.93166 2.70052
C 9.36444 4.91361 3.71677
C 8.20825 4.92472 4.67887
O 7.12299 4.40250 4.36887
O 8.63823 5.35355 5.87954
C 7.52961 5.37151 6.87073
H 12.47382 -1.27534 4.16126
H 11.85333 -1.95093 -2.01694
H 9.96008 4.01413 -2.53495
H 10.84407 3.08907 5.79528
H 11.52714 0.35932 5.93294
H 13.04092 2.78700 5.06404
H 13.55330 1.27312 4.28948
H 13.62357 1.37429 6.02282
H 9.15723 0.57566 5.73966
H 8.33055 2.16324 5.53622
H 10.00172 2.32679 7.83578
H 9.45064 0.68969 7.80275
H 12.48842 -3.37241 3.95433
H 13.21687 -4.31588 2.69798
H 11.51542 -4.64472 3.10256
H 12.74403 -5.60240 0.93824
H 11.78335 -6.34839 -0.46437
H 10.99502 -5.67719 0.99216
H 10.92948 -0.51311 -3.90872
H 11.57905 2.39092 -3.94622
H 13.01349 -0.52207 -4.79523
H 13.61936 -0.00683 -3.18170
H 13.25557 1.16366 -4.34500
H 9.94896 1.28315 -5.52339
H 9.38483 2.78064 -4.80627
H 8.68309 -0.02493 -4.33885
H 7.56005 1.37186 -4.51931
H 8.43585 1.04683 -2.95673
H 8.40382 6.78509 -0.71726
H 9.28165 5.96321 -2.04771
H 10.22958 6.81286 -0.76250
H 10.26416 5.34931 4.15293
H 7.48006 6.38678 7.27628
H 7.75240 4.55491 7.58296
H 6.52061 5.24378 6.49651

