%nproc=24
%mem=175gb
#p cam-b3lyp/Def2SVP td=(nstates=5)

TDDFT excited states in gaussian

0 1
Mg 0.00000 0.00000 0.00000
C -0.21700 -2.21800 2.80100
C -1.25500 2.44200 2.02600
C -0.24500 1.85000 -2.56400
C 0.14600 -2.82400 -2.03700
N -0.61700 -0.00900 2.12600
C -0.59400 -0.90800 3.10500
C -0.93600 -0.30900 4.50200
C -1.77300 0.96400 4.03200
C -1.15500 1.16800 2.66000
C -3.26300 0.68500 3.86300
C 0.34500 0.11000 5.29900
C 0.12400 0.39700 6.78700
H 1.16800 0.03300 7.73300
N -0.18500 1.96100 -0.15200
C -0.70300 2.80000 0.77700
C -0.62000 4.15600 0.19300
C -0.18700 4.01500 -1.22500
C -0.21400 2.58300 -1.38000
C -0.88700 5.40600 0.97400
C 0.18100 5.01300 -2.27700
O 0.30300 4.69000 -3.50800
C 0.31000 6.41400 -1.83700
N -0.26500 -0.41300 -2.02900
C -0.27900 0.56900 -2.93700
C -0.19600 0.02400 -4.33200
C 0.12400 -1.53300 -4.18000
C 0.08600 -1.63200 -2.63500
C -1.45100 0.20500 -5.19700
C 1.37300 -2.07000 -4.92300
C 2.62600 -1.49000 -4.30600
N 0.15000 -2.14400 0.30300
C 0.17300 -3.13600 -0.68800
C 0.17300 -4.43800 0.00400
C 0.13300 -4.11100 1.35800
C 0.08300 -2.69500 1.50200
C 0.14900 -5.71500 -0.62300
C 0.09600 -4.62900 2.71600
O 0.20800 -5.74700 3.22100
C -0.25500 -3.42800 3.70100
C 0.71700 -3.48200 4.84800
O 1.93100 -3.25500 4.66900
O 0.03800 -3.55600 6.00300
C 0.94300 -3.58300 7.18300
H -1.85900 3.22000 2.49700
H -0.21800 2.45300 -3.47400
H 0.27600 -3.74700 -2.60500
H -1.55400 -0.94900 5.13200
H -1.58500 1.83100 4.66500
H -3.48400 -0.37700 3.96900
H -3.51100 1.02700 2.85800
H -3.85200 1.30100 4.54300
H 0.66900 1.09600 4.96600
H 1.13000 -0.63900 5.18900
H -0.84400 0.02600 7.12500
H 0.06200 1.47700 6.92100
H -1.34400 5.18600 1.93800
H -1.65100 5.96300 0.43200
H 0.00700 6.02000 1.08400
H -0.63500 6.74400 -1.40500
H 0.66500 6.97000 -2.70400
H 1.04800 6.46600 -1.03600
H 0.60800 0.50100 -4.89100
H -0.69200 -2.15600 -4.54700
H -1.26700 0.74000 -6.12900
H -2.20400 0.71400 -4.59600
H -1.96700 -0.72000 -5.45300
H 1.35600 -1.75900 -5.96700
H 1.45200 -3.15700 -4.90200
H 2.71400 -0.52200 -4.79800
H 3.48700 -2.12100 -4.52900
H 2.49500 -1.30300 -3.24000
H 0.86700 -6.33300 -0.08400
H 0.40400 -5.64200 -1.68000
H -0.89100 -5.99900 -0.46300
H -1.28300 -3.58100 4.02800
H 0.69800 -4.47800 7.75500
H 0.83300 -2.61900 7.68000
H 2.00000 -3.75400 6.97600
Mg 13.14486 1.18922 1.00371
C 12.81935 -0.25807 4.27150
C 11.90136 4.07851 2.32291
C 12.99496 2.35377 -1.94397
C 13.26429 -2.05316 -0.26847
N 12.48305 1.71832 3.04682
C 12.46299 1.10571 4.22098
C 12.11418 2.02651 5.42099
C 11.30727 3.16394 4.62473
C 11.95689 3.00836 3.25124
C 9.82355 2.86527 4.48792
C 13.39303 2.61054 6.11775
C 13.14201 3.26516 7.47798
H 14.16424 3.13443 8.51259
N 13.00797 3.06465 0.36921
C 12.49680 4.11636 1.04293
C 12.60774 5.26833 0.13473
C 13.07459 4.77766 -1.19042
C 13.02288 3.34562 -0.97442
C 12.36053 6.68097 0.57830
C 13.48572 5.48068 -2.44857
O 13.62742 4.85124 -3.55607
C 13.62669 6.94183 -2.36700
N 12.91875 0.29075 -0.85747
C 12.93882 1.02244 -1.98537
C 13.03620 0.13959 -3.20663
C 13.32226 -1.33246 -2.65091
C 13.24890 -1.04915 -1.13442
C 11.80186 0.11214 -4.10777
C 14.57516 -2.06333 -3.20655
C 15.83089 -1.36653 -2.73434
N 13.24582 -0.80378 1.83184
C 13.26100 -2.02340 1.12023
C 13.21837 -3.11089 2.11922
C 13.15763 -2.44311 3.35164
C 13.14171 -1.03870 3.13509
C 13.18938 -4.50453 1.83105
C 13.09264 -2.60701 4.78608
O 13.16271 -3.56490 5.55502
C 12.74309 -1.20111 5.44003
C 13.68977 -0.97395 6.58664
O 14.90806 -0.83132 6.38165
O 12.97917 -0.74647 7.70631
C 13.87415 -0.50455 8.86920
H 11.31072 4.95824 2.58001
H 13.05410 2.70288 -2.97746
H 13.39713 -3.09125 -0.58056
H 11.47628 1.57377 6.17058
H 11.50972 4.15082 5.03269
H 9.57667 1.87727 4.84714
H 9.60255 2.95010 3.43198
H 9.23522 3.64350 4.98243
H 13.74268 3.48305 5.55100
H 14.15194 1.85850 6.21320
H 12.15337 3.01317 7.88053
H 13.10721 4.34863 7.34052
H 11.87201 6.71470 1.55994
H 11.62066 7.10680 -0.10808
H 13.26307 7.29523 0.55051
H 12.68241 7.37865 -2.05080
H 14.01271 7.25292 -3.33967
H 14.35989 7.17963 -1.58824
H 13.86179 0.44326 -3.83851
H 12.49753 -2.02260 -2.88192
H 12.01844 0.40104 -5.15358
H 11.05257 0.76511 -3.68029
H 11.28048 -0.84271 -4.14786
H 14.58692 -2.01802 -4.29832
H 14.62369 -3.11051 -2.92716
H 15.94419 -0.54875 -3.45232
H 16.68158 -2.04407 -2.77036
H 15.68391 -0.91839 -1.74479
H 13.87579 -4.97917 2.51957
H 13.46236 -4.70239 0.79659
H 12.13596 -4.72223 2.02644
H 11.70401 -1.24211 5.76900
H 13.59458 -1.22612 9.64306
H 13.76042 0.56785 9.11570
H 14.92790 -0.72516 8.74509

