%nproc=24
%mem=175gb
#p cam-b3lyp/Def2SVP td=(nstates=5)

TDDFT excited states in gaussian

0 1
Mg 0.00000 0.00000 0.00000
C -0.21700 -2.21800 2.80100
C -1.25500 2.44200 2.02600
C -0.24500 1.85000 -2.56400
C 0.14600 -2.82400 -2.03700
N -0.61700 -0.00900 2.12600
C -0.59400 -0.90800 3.10500
C -0.93600 -0.30900 4.50200
C -1.77300 0.96400 4.03200
C -1.15500 1.16800 2.66000
C -3.26300 0.68500 3.86300
C 0.34500 0.11000 5.29900
C 0.12400 0.39700 6.78700
H 1.16800 0.03300 7.73300
N -0.18500 1.96100 -0.15200
C -0.70300 2.80000 0.77700
C -0.62000 4.15600 0.19300
C -0.18700 4.01500 -1.22500
C -0.21400 2.58300 -1.38000
C -0.88700 5.40600 0.97400
C 0.18100 5.01300 -2.27700
O 0.30300 4.69000 -3.50800
C 0.31000 6.41400 -1.83700
N -0.26500 -0.41300 -2.02900
C -0.27900 0.56900 -2.93700
C -0.19600 0.02400 -4.33200
C 0.12400 -1.53300 -4.18000
C 0.08600 -1.63200 -2.63500
C -1.45100 0.20500 -5.19700
C 1.37300 -2.07000 -4.92300
C 2.62600 -1.49000 -4.30600
N 0.15000 -2.14400 0.30300
C 0.17300 -3.13600 -0.68800
C 0.17300 -4.43800 0.00400
C 0.13300 -4.11100 1.35800
C 0.08300 -2.69500 1.50200
C 0.14900 -5.71500 -0.62300
C 0.09600 -4.62900 2.71600
O 0.20800 -5.74700 3.22100
C -0.25500 -3.42800 3.70100
C 0.71700 -3.48200 4.84800
O 1.93100 -3.25500 4.66900
O 0.03800 -3.55600 6.00300
C 0.94300 -3.58300 7.18300
H -1.85900 3.22000 2.49700
H -0.21800 2.45300 -3.47400
H 0.27600 -3.74700 -2.60500
H -1.55400 -0.94900 5.13200
H -1.58500 1.83100 4.66500
H -3.48400 -0.37700 3.96900
H -3.51100 1.02700 2.85800
H -3.85200 1.30100 4.54300
H 0.66900 1.09600 4.96600
H 1.13000 -0.63900 5.18900
H -0.84400 0.02600 7.12500
H 0.06200 1.47700 6.92100
H -1.34400 5.18600 1.93800
H -1.65100 5.96300 0.43200
H 0.00700 6.02000 1.08400
H -0.63500 6.74400 -1.40500
H 0.66500 6.97000 -2.70400
H 1.04800 6.46600 -1.03600
H 0.60800 0.50100 -4.89100
H -0.69200 -2.15600 -4.54700
H -1.26700 0.74000 -6.12900
H -2.20400 0.71400 -4.59600
H -1.96700 -0.72000 -5.45300
H 1.35600 -1.75900 -5.96700
H 1.45200 -3.15700 -4.90200
H 2.71400 -0.52200 -4.79800
H 3.48700 -2.12100 -4.52900
H 2.49500 -1.30300 -3.24000
H 0.86700 -6.33300 -0.08400
H 0.40400 -5.64200 -1.68000
H -0.89100 -5.99900 -0.46300
H -1.28300 -3.58100 4.02800
H 0.69800 -4.47800 7.75500
H 0.83300 -2.61900 7.68000
H 2.00000 -3.75400 6.97600
Mg 31.53692 2.83311 2.40313
C 28.85887 2.79196 4.79172
C 33.43491 4.37477 4.78127
C 33.76245 3.29071 0.18840
C 29.14162 2.35517 -0.08279
N 31.09251 3.44987 4.48024
C 30.06038 3.32698 5.30118
C 30.35591 3.73007 6.77079
C 31.59149 4.72070 6.50460
C 32.09999 4.12978 5.19124
C 31.16687 6.15730 6.24927
C 30.78215 2.50423 7.65264
C 30.78621 2.76700 9.16019
H 30.39362 1.68319 10.05668
N 33.46838 3.24914 2.59008
C 34.07249 3.85801 3.63201
C 35.49674 3.94792 3.27481
C 35.65712 3.49125 1.86752
C 34.26900 3.34243 1.47886
C 36.55753 4.35520 4.25575
C 36.86039 3.24338 1.00909
O 36.76111 3.07878 -0.25814
C 38.16681 3.29194 1.68171
N 31.44811 3.03702 0.33604
C 32.56902 3.17314 -0.39401
C 32.28072 3.02507 -1.86892
C 30.76663 2.51866 -1.96200
C 30.39722 2.54840 -0.46265
C 32.44629 4.29094 -2.70947
C 30.50956 1.21157 -2.76080
C 31.12541 0.03534 -2.03790
N 29.41569 2.42693 2.34462
C 28.60498 2.28892 1.19667
C 27.21184 2.13508 1.66347
C 27.30658 2.21799 3.06084
C 28.66038 2.43014 3.43731
C 26.06603 1.99549 0.83055
C 26.56776 2.18489 4.30251
O 25.40091 1.94873 4.61301
C 27.52265 2.68147 5.47212
C 27.39714 1.71366 6.61672
O 27.78180 0.53732 6.49484
O 27.04783 2.38783 7.72751
C 26.92171 1.47227 8.89271
H 34.04137 5.06169 5.37223
H 34.50513 3.33279 -0.61169
H 28.34955 2.10347 -0.79127
H 29.55269 4.26226 7.26615
H 32.34600 4.62869 7.28153
H 30.09399 6.25259 6.17176
H 31.64026 6.44307 5.31907
H 31.58573 6.81603 7.01541
H 31.84944 2.30299 7.49413
H 30.17192 1.64892 7.43657
H 30.25525 3.69116 9.41894
H 31.81544 2.95139 9.47752
H 36.12071 4.79132 5.16261
H 37.11546 5.17996 3.79930
H 37.25149 3.54416 4.48663
H 38.29918 4.26747 2.14353
H 38.89685 3.00222 0.92343
H 38.16977 2.55630 2.49377
H 32.92822 2.28122 -2.31675
H 30.12012 3.25638 -2.45963
H 33.16190 4.16989 -3.54453
H 32.75638 5.09604 -2.05663
H 31.52632 4.68343 -3.13939
H 30.99481 1.26362 -3.73855
H 29.45750 1.01086 -2.93369
H 32.17107 0.06885 -2.35813
H 30.64877 -0.89406 -2.34297
H 31.10804 0.18753 -0.95245
H 25.45558 1.21711 1.26870
H 26.34548 1.75391 -0.19283
H 25.64085 2.99925 0.91391
H 27.20491 3.68724 5.74971
H 25.91669 1.61307 9.30234
H 27.77408 1.71304 9.55546
H 26.92222 0.40670 8.69520

