%nproc=24
%mem=175gb
#p cam-b3lyp/Def2SVP td=(nstates=5)

TDDFT excited states in gaussian

0 1
Mg 8.92892 0.81149 0.68441
C 11.17910 1.27412 3.44153
C 6.59622 -0.21063 2.95342
C 7.07635 -0.03283 -1.74922
C 11.71858 0.76171 -1.40388
N 8.99770 0.60248 2.88528
C 9.88632 0.86645 3.83133
C 9.33553 0.76053 5.27874
C 8.11433 -0.24394 4.99840
C 7.85624 0.08879 3.53029
C 8.50603 -1.70910 5.09438
C 8.82972 2.14045 5.82827
C 8.56661 2.17508 7.33536
H 8.85850 3.40603 8.06477
N 6.97528 0.46914 0.61597
C 6.18057 0.08315 1.63612
C 4.83128 -0.05256 1.06589
C 4.92519 0.12496 -0.40869
C 6.36368 0.17439 -0.57717
C 3.60614 -0.24566 1.91156
C 3.89173 0.22002 -1.48995
O 4.20468 0.13425 -2.72992
C 2.49208 0.32275 -1.05185
N 9.34481 0.20930 -1.26155
C 8.35321 -0.04866 -2.13224
C 8.88558 -0.19380 -3.53791
C 10.41690 0.26177 -3.46653
C 10.53426 0.51768 -1.94793
C 8.79958 -1.59596 -4.14036
C 10.86318 1.38509 -4.44206
C 10.19416 2.68843 -4.06910
N 11.04807 1.16619 0.91116
C 12.04127 1.06659 -0.08771
C 13.34503 1.28674 0.57120
C 13.01916 1.47781 1.92242
C 11.61347 1.36337 2.09687
C 14.61697 1.24467 -0.06638
C 13.54567 1.73976 3.24260
O 14.65594 2.01381 3.69640
C 12.38977 1.49403 4.30556
C 12.37237 2.66338 5.25152
O 12.06934 3.79950 4.84654
O 12.50275 2.21214 6.51238
C 12.48009 3.33421 7.48821
H 5.86923 -0.76058 3.55168
H 6.47339 -0.21791 -2.64122
H 12.62696 0.85914 -2.00225
H 10.02062 0.32229 5.99454
H 7.24816 0.00848 5.60455
H 9.57135 -1.83397 5.21941
H 8.17808 -2.16255 4.16816
H 7.93658 -2.20029 5.88860
H 7.81355 2.32341 5.45589
H 9.50714 2.92822 5.56151
H 9.00343 1.31063 7.85001
H 7.49174 2.07145 7.50244
H 3.86745 -0.50428 2.94511
H 3.09171 -1.13466 1.53089
H 2.92322 0.60525 1.86419
H 2.23961 -0.54258 -0.44364
H 1.91055 0.47105 -1.96383
H 2.39140 1.20185 -0.40558
H 8.35626 0.45889 -4.22122
H 11.10019 -0.56822 -3.69907
H 8.23678 -1.62821 -5.09235
H 8.34887 -2.25435 -3.40967
H 9.75770 -2.07835 -4.32610
H 10.54246 1.15185 -5.46034
H 11.93770 1.53238 -4.46863
H 9.21456 2.60943 -4.54997
H 10.75803 3.53365 -4.45858
H 10.02648 2.74934 -2.98752
H 15.18394 2.08382 0.31425
H 14.52050 1.28746 -1.14926
H 14.97445 0.26975 0.27568
H 12.60951 0.55644 4.81764
H 13.39670 3.26019 8.08153
H 11.52030 3.23956 8.03006
H 12.56268 4.34115 7.09614

