%nproc=24
%mem=175gb
#p cam-b3lyp/Def2SVP td=(nstates=5)

TDDFT excited states in gaussian

0 1
Mg 0.00000 0.00000 0.00000
C -0.21700 -2.21800 2.80100
C -1.25500 2.44200 2.02600
C -0.24500 1.85000 -2.56400
C 0.14600 -2.82400 -2.03700
N -0.61700 -0.00900 2.12600
C -0.59400 -0.90800 3.10500
C -0.93600 -0.30900 4.50200
C -1.77300 0.96400 4.03200
C -1.15500 1.16800 2.66000
C -3.26300 0.68500 3.86300
C 0.34500 0.11000 5.29900
C 0.12400 0.39700 6.78700
H 1.16800 0.03300 7.73300
N -0.18500 1.96100 -0.15200
C -0.70300 2.80000 0.77700
C -0.62000 4.15600 0.19300
C -0.18700 4.01500 -1.22500
C -0.21400 2.58300 -1.38000
C -0.88700 5.40600 0.97400
C 0.18100 5.01300 -2.27700
O 0.30300 4.69000 -3.50800
C 0.31000 6.41400 -1.83700
N -0.26500 -0.41300 -2.02900
C -0.27900 0.56900 -2.93700
C -0.19600 0.02400 -4.33200
C 0.12400 -1.53300 -4.18000
C 0.08600 -1.63200 -2.63500
C -1.45100 0.20500 -5.19700
C 1.37300 -2.07000 -4.92300
C 2.62600 -1.49000 -4.30600
N 0.15000 -2.14400 0.30300
C 0.17300 -3.13600 -0.68800
C 0.17300 -4.43800 0.00400
C 0.13300 -4.11100 1.35800
C 0.08300 -2.69500 1.50200
C 0.14900 -5.71500 -0.62300
C 0.09600 -4.62900 2.71600
O 0.20800 -5.74700 3.22100
C -0.25500 -3.42800 3.70100
C 0.71700 -3.48200 4.84800
O 1.93100 -3.25500 4.66900
O 0.03800 -3.55600 6.00300
C 0.94300 -3.58300 7.18300
H -1.85900 3.22000 2.49700
H -0.21800 2.45300 -3.47400
H 0.27600 -3.74700 -2.60500
H -1.55400 -0.94900 5.13200
H -1.58500 1.83100 4.66500
H -3.48400 -0.37700 3.96900
H -3.51100 1.02700 2.85800
H -3.85200 1.30100 4.54300
H 0.66900 1.09600 4.96600
H 1.13000 -0.63900 5.18900
H -0.84400 0.02600 7.12500
H 0.06200 1.47700 6.92100
H -1.34400 5.18600 1.93800
H -1.65100 5.96300 0.43200
H 0.00700 6.02000 1.08400
H -0.63500 6.74400 -1.40500
H 0.66500 6.97000 -2.70400
H 1.04800 6.46600 -1.03600
H 0.60800 0.50100 -4.89100
H -0.69200 -2.15600 -4.54700
H -1.26700 0.74000 -6.12900
H -2.20400 0.71400 -4.59600
H -1.96700 -0.72000 -5.45300
H 1.35600 -1.75900 -5.96700
H 1.45200 -3.15700 -4.90200
H 2.71400 -0.52200 -4.79800
H 3.48700 -2.12100 -4.52900
H 2.49500 -1.30300 -3.24000
H 0.86700 -6.33300 -0.08400
H 0.40400 -5.64200 -1.68000
H -0.89100 -5.99900 -0.46300
H -1.28300 -3.58100 4.02800
H 0.69800 -4.47800 7.75500
H 0.83300 -2.61900 7.68000
H 2.00000 -3.75400 6.97600
Mg 10.51896 0.94102 0.79407
C 10.44768 2.24697 -2.54786
C 10.01692 -2.14817 -0.56221
C 10.12718 -0.17818 3.73708
C 9.87301 4.17436 1.92278
N 10.27981 0.26473 -1.29823
C 10.33222 0.84247 -2.48895
C 10.33742 -0.14754 -3.68453
C 9.63027 -1.39706 -2.96514
C 10.02520 -1.10240 -1.51950
C 8.11396 -1.36783 -3.06147
C 11.78992 -0.50438 -4.15878
C 11.86807 -1.21790 -5.51027
H 12.99736 -0.92402 -6.38823
N 10.61744 -0.91669 1.48530
C 10.40731 -2.05518 0.79178
C 10.57836 -3.15182 1.75732
C 10.74420 -2.56136 3.11326
C 10.47605 -1.16612 2.82779
C 10.65305 -4.59365 1.34626
C 11.07517 -3.15613 4.44852
O 10.93369 -2.49161 5.53536
C 11.48066 -4.56929 4.45439
N 9.85756 1.81753 2.55947
C 9.83307 1.12185 3.70984
C 9.58672 2.02968 4.89117
C 9.69195 3.51891 4.31786
C 9.90172 3.19973 2.82136
C 8.24380 1.85080 5.59895
C 10.69774 4.47319 5.01815
C 12.11324 4.00532 4.76747
N 10.39449 2.90440 -0.09907
C 10.08701 4.11946 0.55144
C 10.00756 5.16335 -0.49088
C 10.25357 4.47344 -1.68753
C 10.45101 3.09323 -1.41269
C 9.69127 6.53400 -0.27310
C 10.38061 4.59709 -3.12185
O 10.39837 5.53793 -3.91446
C 10.38670 3.13969 -3.75614
C 11.52229 3.06595 -4.73977
O 12.70094 3.14859 -4.35174
O 11.04189 2.69417 -5.94034
C 12.13227 2.59633 -6.94698
H 9.63578 -3.12431 -0.86348
H 10.08809 -0.49226 4.78269
H 9.77275 5.22486 2.20398
H 9.75210 0.16944 -4.53933
H 10.06231 -2.33859 -3.29410
H 7.75561 -0.44702 -3.49716
H 7.75267 -1.47200 -2.04674
H 7.75351 -2.24801 -3.60156
H 12.19632 -1.28938 -3.50811
H 12.41092 0.37010 -4.17539
H 10.92379 -1.15521 -6.06468
H 12.00302 -2.28729 -5.33081
H 10.33365 -4.73242 0.30600
H 9.90323 -5.13323 1.93489
H 11.63424 -5.03488 1.53401
H 10.68699 -5.17452 4.02281
H 11.76213 -4.78826 5.48623
H 12.35433 -4.68528 3.80334
H 10.34646 1.89095 5.65055
H 8.73365 4.05343 4.39385
H 8.34542 1.62449 6.67716
H 7.69464 1.06607 5.09581
H 7.56332 2.69682 5.51897
H 10.55046 4.45042 6.10072
H 10.60417 5.50680 4.70209
H 12.25707 3.23435 5.53036
H 12.81648 4.82542 4.89760
H 12.19982 3.52029 3.78824
H 10.38087 7.11191 -0.87391
H 9.76422 6.79635 0.78028
H 8.65837 6.55502 -0.63079
H 9.41909 2.98711 -4.23577
H 11.85209 3.24175 -7.78521
H 12.24711 1.51670 -7.15901
H 13.09959 3.00515 -6.67940

