%nproc=24
%mem=175gb
#p cam-b3lyp/Def2SVP td=(nstates=5)

TDDFT excited states in gaussian

0 1
Mg 7.87580 0.70589 0.60546
C 7.58287 3.42636 2.92760
C 8.80806 -1.24760 3.24163
C 8.57687 -1.58866 -1.47082
C 8.04157 3.07969 -1.94077
N 8.12553 1.14689 2.75846
C 7.92629 2.20084 3.53554
C 8.02667 1.90678 5.05640
C 8.95843 0.60065 4.98779
C 8.58733 0.10880 3.59028
C 10.44412 0.91977 5.00296
C 6.63083 1.58365 5.69612
C 6.60753 1.59076 7.22621
H 5.40680 2.07480 7.90179
N 8.11034 -1.24573 0.87887
C 8.46985 -1.87013 2.01999
C 8.52239 -3.30387 1.69472
C 8.32525 -3.45962 0.22789
C 8.35116 -2.07236 -0.19034
C 8.66299 -4.37101 2.74108
C 8.15589 -4.65933 -0.65427
O 8.23749 -4.57357 -1.93052
C 7.98475 -5.95263 0.02364
N 8.46659 0.74013 -1.38756
C 8.65553 -0.40151 -2.07232
C 8.80550 -0.13242 -3.55066
C 8.43504 1.41099 -3.74617
C 8.21167 1.80657 -2.27002
C 10.19050 -0.40153 -4.13866
C 7.32124 1.74232 -4.77686
C 5.99000 1.22354 -4.28283
N 7.64060 2.84861 0.45890
C 7.77703 3.64443 -0.69961
C 7.63922 5.05370 -0.27845
C 7.45367 4.98066 1.11034
C 7.49455 3.62301 1.52821
C 7.73948 6.18999 -1.12986
C 7.24313 5.74403 2.31932
O 7.03751 6.93025 2.57295
C 7.44372 4.78000 3.56705
C 6.29136 4.99446 4.50970
O 5.13375 4.68984 4.17240
O 6.77033 5.31782 5.72477
C 5.66539 5.52967 6.69742
H 9.32779 -1.88853 3.95435
H 8.71378 -2.34790 -2.24431
H 7.98349 3.87334 -2.68871
H 8.51354 2.68073 5.63755
H 8.66967 -0.13041 5.73848
H 10.62876 1.98176 4.93798
H 10.86332 0.40972 4.14554
H 10.91706 0.47132 5.88133
H 6.38667 0.52996 5.50939
H 5.87661 2.24729 5.32015
H 7.50303 2.06141 7.64990
H 6.65545 0.55760 7.57879
H 8.95291 -3.94786 3.71076
H 9.51616 -4.99347 2.45035
H 7.77557 -5.00254 2.82052
H 8.84528 -6.14319 0.66053
H 7.78964 -6.67549 -0.77090
H 7.11256 -5.88887 0.68383
H 8.11354 -0.73547 -4.12566
H 9.29685 1.99508 -4.10108
H 10.17600 -1.12317 -4.97717
H 10.83575 -0.75384 -3.34489
H 10.72099 0.48052 -4.49330
H 7.51941 1.23569 -5.72460
H 7.23208 2.80218 -4.99074
H 6.00752 0.17203 -4.58467
H 5.17016 1.75733 -4.75925
H 5.93842 1.25146 -3.18820
H 6.93893 6.86127 -0.84877
H 7.67316 5.90806 -2.17862
H 8.73804 6.54622 -0.86293
H 8.40040 5.03271 4.02582
H 5.79913 6.53031 7.11992
H 5.71695 4.67574 7.39877
H 4.65792 5.59906 6.30416

