%nproc=24
%mem=175gb
#p cam-b3lyp/Def2SVP td=(nstates=5)

TDDFT excited states in gaussian

0 1
Mg 7.88984 0.71774 0.59716
C 7.28039 2.72451 3.50929
C 6.90740 3.39695 -1.27132
C 7.98399 -1.15748 -1.96060
C 7.71612 -2.08425 2.66219
N 7.20560 2.74402 1.16130
C 7.07306 3.41377 2.29629
C 6.77553 4.92694 2.11922
C 6.12680 4.87427 0.65115
C 6.81141 3.61384 0.12648
C 4.62654 4.63262 0.66446
C 8.07980 5.79898 2.13992
C 7.84469 7.30436 2.28242
H 8.80449 8.08872 3.05445
N 7.97852 1.17916 -1.33100
C 7.55491 2.31963 -1.91509
C 7.82417 2.15956 -3.35247
C 8.28968 0.76618 -3.59018
C 8.07762 0.18986 -2.27756
C 7.71043 3.29089 -4.33256
C 8.82375 0.06463 -4.80212
O 8.94267 -1.21088 -4.84405
C 9.11551 0.90648 -5.97159
N 7.64535 -1.33091 0.34105
C 7.78865 -1.89825 -0.86954
C 7.84127 -3.40371 -0.76364
C 7.94678 -3.72096 0.80026
C 7.84246 -2.28431 1.35752
C 6.64855 -4.15431 -1.35560
C 9.13657 -4.60745 1.25983
C 10.43895 -3.86523 1.06414
N 7.74514 0.35871 2.72277
C 7.65969 -0.89204 3.37270
C 7.46146 -0.62234 4.81159
C 7.42198 0.77756 4.89650
C 7.56393 1.34022 3.59928
C 7.29650 -1.60583 5.82729
C 7.28185 1.90705 5.78718
O 7.21867 2.04822 7.00776
C 7.05719 3.21527 4.91284
C 7.97535 4.28622 5.43493
O 9.20921 4.16136 5.34210
O 7.24807 5.37119 5.75786
C 8.11577 6.46490 6.27041
H 6.40349 4.09495 -1.94047
H 8.12169 -1.84886 -2.79517
H 7.75063 -2.90279 3.38433
H 6.06333 5.33561 2.82600
H 6.41608 5.73941 0.06021
H 4.26187 4.41774 1.65793
H 4.45878 3.78809 0.00897
H 4.10451 5.47778 0.20671
H 8.54273 5.77447 1.14501
H 8.75015 5.46371 2.90728
H 6.81940 7.53342 2.59745
H 7.93064 7.76403 1.29482
H 7.18885 4.15113 -3.89515
H 7.04835 2.95196 -5.13670
H 8.67342 3.57355 -4.76317
H 8.21085 1.42718 -6.27645
H 9.57148 0.23921 -6.70555
H 9.83761 1.67621 -5.67716
H 8.71936 -3.79598 -1.26182
H 7.06354 -4.26486 1.16618
H 6.93678 -4.89158 -2.12854
H 5.95604 -3.42889 -1.76148
H 6.03086 -4.68376 -0.63217
H 9.19734 -5.50846 0.64450
H 9.06236 -4.92791 2.29366
H 10.66738 -4.04167 0.00879
H 11.21372 -4.27434 1.70943
H 10.30033 -2.78578 1.19540
H 7.90020 -1.28982 6.66764
H 7.58867 -2.59320 5.47586
H 6.21887 -1.53261 5.99650
H 6.00715 3.49516 5.00589
H 7.73009 6.74346 7.25597
H 8.10655 7.24568 5.48679
H 9.14433 6.21931 6.50749

