%nproc=24
%mem=175gb
#p cam-b3lyp/Def2SVP td=(nstates=5)

TDDFT excited states in gaussian

0 1
Mg 0.00000 0.00000 0.00000
C -0.21700 -2.21800 2.80100
C -1.25500 2.44200 2.02600
C -0.24500 1.85000 -2.56400
C 0.14600 -2.82400 -2.03700
N -0.61700 -0.00900 2.12600
C -0.59400 -0.90800 3.10500
C -0.93600 -0.30900 4.50200
C -1.77300 0.96400 4.03200
C -1.15500 1.16800 2.66000
C -3.26300 0.68500 3.86300
C 0.34500 0.11000 5.29900
C 0.12400 0.39700 6.78700
H 1.16800 0.03300 7.73300
N -0.18500 1.96100 -0.15200
C -0.70300 2.80000 0.77700
C -0.62000 4.15600 0.19300
C -0.18700 4.01500 -1.22500
C -0.21400 2.58300 -1.38000
C -0.88700 5.40600 0.97400
C 0.18100 5.01300 -2.27700
O 0.30300 4.69000 -3.50800
C 0.31000 6.41400 -1.83700
N -0.26500 -0.41300 -2.02900
C -0.27900 0.56900 -2.93700
C -0.19600 0.02400 -4.33200
C 0.12400 -1.53300 -4.18000
C 0.08600 -1.63200 -2.63500
C -1.45100 0.20500 -5.19700
C 1.37300 -2.07000 -4.92300
C 2.62600 -1.49000 -4.30600
N 0.15000 -2.14400 0.30300
C 0.17300 -3.13600 -0.68800
C 0.17300 -4.43800 0.00400
C 0.13300 -4.11100 1.35800
C 0.08300 -2.69500 1.50200
C 0.14900 -5.71500 -0.62300
C 0.09600 -4.62900 2.71600
O 0.20800 -5.74700 3.22100
C -0.25500 -3.42800 3.70100
C 0.71700 -3.48200 4.84800
O 1.93100 -3.25500 4.66900
O 0.03800 -3.55600 6.00300
C 0.94300 -3.58300 7.18300
H -1.85900 3.22000 2.49700
H -0.21800 2.45300 -3.47400
H 0.27600 -3.74700 -2.60500
H -1.55400 -0.94900 5.13200
H -1.58500 1.83100 4.66500
H -3.48400 -0.37700 3.96900
H -3.51100 1.02700 2.85800
H -3.85200 1.30100 4.54300
H 0.66900 1.09600 4.96600
H 1.13000 -0.63900 5.18900
H -0.84400 0.02600 7.12500
H 0.06200 1.47700 6.92100
H -1.34400 5.18600 1.93800
H -1.65100 5.96300 0.43200
H 0.00700 6.02000 1.08400
H -0.63500 6.74400 -1.40500
H 0.66500 6.97000 -2.70400
H 1.04800 6.46600 -1.03600
H 0.60800 0.50100 -4.89100
H -0.69200 -2.15600 -4.54700
H -1.26700 0.74000 -6.12900
H -2.20400 0.71400 -4.59600
H -1.96700 -0.72000 -5.45300
H 1.35600 -1.75900 -5.96700
H 1.45200 -3.15700 -4.90200
H 2.71400 -0.52200 -4.79800
H 3.48700 -2.12100 -4.52900
H 2.49500 -1.30300 -3.24000
H 0.86700 -6.33300 -0.08400
H 0.40400 -5.64200 -1.68000
H -0.89100 -5.99900 -0.46300
H -1.28300 -3.58100 4.02800
H 0.69800 -4.47800 7.75500
H 0.83300 -2.61900 7.68000
H 2.00000 -3.75400 6.97600
Mg 8.94119 0.81132 0.67481
C 8.31794 3.63376 2.80188
C 8.07950 2.79695 -1.96136
C 9.04460 -1.76630 -1.17251
C 8.63931 -1.20794 3.49920
N 8.30047 2.92533 0.56205
C 8.15933 3.91654 1.42918
C 7.90861 5.30552 0.78308
C 7.29432 4.81242 -0.61633
C 7.95587 3.43856 -0.70313
C 5.78800 4.61553 -0.57635
C 9.23589 6.11587 0.57407
C 9.03961 7.59539 0.23606
H 10.00205 8.56207 0.75733
N 9.08929 0.65003 -1.29765
C 8.71199 1.56090 -2.21919
C 9.01131 0.95770 -3.52714
C 9.44326 -0.44931 -3.30700
C 9.18352 -0.58582 -1.88784
C 8.95298 1.73111 -4.81238
C 9.98662 -1.50229 -4.22470
O 10.07080 -2.72990 -3.86595
C 10.32998 -1.07051 -5.58748
N 8.64574 -1.21064 1.05785
C 8.80232 -2.12817 0.08752
C 8.81023 -3.52722 0.65584
C 8.86901 -3.34562 2.24365
C 8.79149 -1.80525 2.32522
C 7.61163 -4.40150 0.28788
C 10.02209 -4.06836 2.99247
C 11.34907 -3.44849 2.61794
N 8.73519 1.13226 2.80146
C 8.59911 0.14673 3.80359
C 8.37380 0.85324 5.08129
C 8.37146 2.21089 4.72739
C 8.56039 2.34054 3.32489
C 8.15690 0.23671 6.34579
C 8.24150 3.56343 5.21978
O 8.15283 4.07747 6.33407
C 8.07471 4.53991 3.97677
C 9.00959 5.70223 4.17047
O 10.24135 5.53119 4.15995
O 8.30536 6.84754 4.11851
C 9.19068 8.02951 4.29450
H 7.61162 3.26241 -2.82930
H 9.18303 -2.68498 -1.74727
H 8.63346 -1.76257 4.43996
H 7.19126 5.92682 1.30573
H 7.62188 5.44586 -1.43659
H 5.39358 4.72646 0.42278
H 5.61257 3.61268 -0.94318
H 5.30104 5.28679 -1.28951
H 9.72185 5.77508 -0.34921
H 9.87787 6.02245 1.42833
H 8.01381 7.93042 0.43211
H 9.16222 7.72426 -0.84208
H 8.44524 2.69441 -4.67948
H 8.30129 1.17216 -5.49263
H 9.93362 1.84780 -5.27864
H 9.44788 -0.65290 -6.06701
H 10.78471 -1.94114 -6.06403
H 11.06601 -0.26136 -5.52309
H 9.68878 -4.07139 0.33161
H 7.96232 -3.73218 2.73182
H 7.89771 -5.34754 -0.20933
H 6.94969 -3.82470 -0.34432
H 6.96208 -4.66850 1.11975
H 10.07247 -5.11680 2.68852
H 9.91399 -4.05080 4.07182
H 11.59790 -3.94796 1.67682
H 12.09628 -3.65195 3.38235
H 11.23757 -2.37913 2.40415
H 8.74873 0.78623 7.06570
H 8.42974 -0.81637 6.32670
H 7.07797 0.37938 6.44984
H 7.03097 4.85486 3.94534
H 8.78924 8.60739 5.13271
H 9.22224 8.52869 3.30780
H 10.20594 7.84998 4.62838

