%nproc=24
%mem=175gb
#p cam-b3lyp/Def2SVP td=(nstates=5)

TDDFT excited states in gaussian

0 1
Mg 0.00000 0.00000 0.00000
C -0.21700 -2.21800 2.80100
C -1.25500 2.44200 2.02600
C -0.24500 1.85000 -2.56400
C 0.14600 -2.82400 -2.03700
N -0.61700 -0.00900 2.12600
C -0.59400 -0.90800 3.10500
C -0.93600 -0.30900 4.50200
C -1.77300 0.96400 4.03200
C -1.15500 1.16800 2.66000
C -3.26300 0.68500 3.86300
C 0.34500 0.11000 5.29900
C 0.12400 0.39700 6.78700
H 1.16800 0.03300 7.73300
N -0.18500 1.96100 -0.15200
C -0.70300 2.80000 0.77700
C -0.62000 4.15600 0.19300
C -0.18700 4.01500 -1.22500
C -0.21400 2.58300 -1.38000
C -0.88700 5.40600 0.97400
C 0.18100 5.01300 -2.27700
O 0.30300 4.69000 -3.50800
C 0.31000 6.41400 -1.83700
N -0.26500 -0.41300 -2.02900
C -0.27900 0.56900 -2.93700
C -0.19600 0.02400 -4.33200
C 0.12400 -1.53300 -4.18000
C 0.08600 -1.63200 -2.63500
C -1.45100 0.20500 -5.19700
C 1.37300 -2.07000 -4.92300
C 2.62600 -1.49000 -4.30600
N 0.15000 -2.14400 0.30300
C 0.17300 -3.13600 -0.68800
C 0.17300 -4.43800 0.00400
C 0.13300 -4.11100 1.35800
C 0.08300 -2.69500 1.50200
C 0.14900 -5.71500 -0.62300
C 0.09600 -4.62900 2.71600
O 0.20800 -5.74700 3.22100
C -0.25500 -3.42800 3.70100
C 0.71700 -3.48200 4.84800
O 1.93100 -3.25500 4.66900
O 0.03800 -3.55600 6.00300
C 0.94300 -3.58300 7.18300
H -1.85900 3.22000 2.49700
H -0.21800 2.45300 -3.47400
H 0.27600 -3.74700 -2.60500
H -1.55400 -0.94900 5.13200
H -1.58500 1.83100 4.66500
H -3.48400 -0.37700 3.96900
H -3.51100 1.02700 2.85800
H -3.85200 1.30100 4.54300
H 0.66900 1.09600 4.96600
H 1.13000 -0.63900 5.18900
H -0.84400 0.02600 7.12500
H 0.06200 1.47700 6.92100
H -1.34400 5.18600 1.93800
H -1.65100 5.96300 0.43200
H 0.00700 6.02000 1.08400
H -0.63500 6.74400 -1.40500
H 0.66500 6.97000 -2.70400
H 1.04800 6.46600 -1.03600
H 0.60800 0.50100 -4.89100
H -0.69200 -2.15600 -4.54700
H -1.26700 0.74000 -6.12900
H -2.20400 0.71400 -4.59600
H -1.96700 -0.72000 -5.45300
H 1.35600 -1.75900 -5.96700
H 1.45200 -3.15700 -4.90200
H 2.71400 -0.52200 -4.79800
H 3.48700 -2.12100 -4.52900
H 2.49500 -1.30300 -3.24000
H 0.86700 -6.33300 -0.08400
H 0.40400 -5.64200 -1.68000
H -0.89100 -5.99900 -0.46300
H -1.28300 -3.58100 4.02800
H 0.69800 -4.47800 7.75500
H 0.83300 -2.61900 7.68000
H 2.00000 -3.75400 6.97600
Mg 8.94208 0.80413 0.67157
C 8.55975 4.03084 -0.85197
C 8.41523 -0.54991 -2.41447
C 8.82510 -2.04984 2.05310
C 8.30257 2.33042 3.73867
N 8.55006 1.72490 -1.30093
C 8.48825 2.96215 -1.76970
C 8.42217 3.06101 -3.31741
C 7.81137 1.60808 -3.62531
C 8.31582 0.86418 -2.39048
C 6.29205 1.57900 -3.61293
C 9.83993 3.23735 -3.96616
C 9.82606 3.64908 -5.43994
H 10.87065 4.54897 -5.92108
N 9.14829 -1.00936 -0.10774
C 8.91316 -1.37792 -1.38452
C 9.19330 -2.82085 -1.44483
C 9.45400 -3.30626 -0.06240
C 9.12493 -2.11883 0.70036
C 9.27354 -3.58086 -2.73688
C 9.91011 -4.62530 0.48378
O 9.84042 -4.89656 1.73453
C 10.35345 -5.62413 -0.49972
N 8.40452 0.18316 2.58148
C 8.49407 -1.11000 2.93878
C 8.32100 -1.27725 4.42957
C 8.33759 0.20375 5.03284
C 8.43204 1.01094 3.71948
C 7.04640 -1.99371 4.87507
C 9.37101 0.49491 6.15532
C 10.77338 0.43502 5.59393
N 8.69044 2.83033 1.37811
C 8.40427 3.24425 2.69753
C 8.21050 4.70836 2.66216
C 8.37597 5.04425 1.31002
C 8.63331 3.86958 0.55278
C 7.87562 5.53030 3.77499
C 8.38094 6.12407 0.34946
O 8.30742 7.35016 0.42040
C 8.37486 5.50007 -1.11238
C 9.42714 6.20580 -1.92304
O 10.63103 6.09086 -1.63314
O 8.85987 6.71968 -3.02961
C 9.86587 7.42019 -3.87168
H 8.03758 -1.08182 -3.28816
H 8.88096 -2.99549 2.59725
H 8.19694 2.89315 4.66865
H 7.75990 3.83053 -3.69558
H 8.24059 1.18251 -4.52865
H 5.87380 2.51780 -3.28146
H 6.01861 0.78217 -2.93371
H 5.91269 1.28157 -4.59474
H 10.32001 2.25390 -4.05034
H 10.43313 3.93109 -3.40273
H 8.83795 4.00119 -5.76027
H 10.00472 2.76045 -6.05020
H 8.87345 -2.99508 -3.57365
H 8.58991 -4.43231 -2.64999
H 10.27863 -3.95434 -2.94415
H 9.54389 -5.82931 -1.19612
H 10.72491 -6.46677 0.08666
H 11.17336 -5.19644 -1.08746
H 9.14426 -1.83878 4.85387
H 7.37446 0.46645 5.49457
H 7.24271 -2.88715 5.49741
H 6.47946 -2.26155 3.99338
H 6.33861 -1.37700 5.42634
H 9.31412 -0.27281 6.93089
H 9.22329 1.45410 6.64021
H 11.00075 -0.63507 5.61156
H 11.46211 0.99528 6.22306
H 10.79230 0.75883 4.54682
H 8.49720 6.41329 3.70809
H 8.02786 5.00638 4.71632
H 6.81657 5.71092 3.57236
H 7.37560 5.64301 -1.52543
H 9.49992 8.44017 -4.02463
H 9.99253 6.79015 -4.77210
H 10.84033 7.60817 -3.43632

