%nproc=24
%mem=175gb
#p cam-b3lyp/Def2SVP td=(nstates=5)

TDDFT excited states in gaussian

0 1
Mg 8.93474 0.81299 0.68476
C 10.63632 -0.48310 3.56640
C 6.34145 1.60076 2.75571
C 7.23237 1.54863 -1.88977
C 11.11225 -1.07278 -1.27688
N 8.64495 0.54450 2.86104
C 9.38514 0.09619 3.86377
C 8.78355 0.35179 5.27172
C 7.23723 0.46963 4.85472
C 7.40842 0.93483 3.41009
C 6.51339 -0.86651 4.84364
C 9.30861 1.68400 5.91322
C 9.00631 1.84225 7.40497
H 9.99252 2.51285 8.24769
N 7.28961 1.90796 0.50270
C 6.35821 2.14111 1.45107
C 5.33756 2.98703 0.81323
C 5.65888 3.09803 -0.63561
C 6.75158 2.15150 -0.73654
C 4.24101 3.66134 1.58545
C 5.07060 3.91081 -1.74894
O 5.35026 3.67276 -2.97693
C 4.08574 4.93267 -1.36508
N 9.00005 0.15146 -1.28513
C 8.18247 0.67246 -2.21682
C 8.59570 0.24586 -3.60522
C 10.01134 -0.47700 -3.42905
C 10.13507 -0.41964 -1.89062
C 7.63074 -0.69447 -4.32704
C 11.18887 0.06322 -4.28594
C 11.55907 1.45746 -3.83378
N 10.69424 -0.39167 1.03265
C 11.43651 -1.11445 0.07312
C 12.47379 -1.87058 0.80439
C 12.24663 -1.55069 2.15144
C 11.13285 -0.67409 2.25426
C 13.42523 -2.75439 0.22150
C 12.68916 -1.76363 3.51068
O 13.64116 -2.34127 4.03389
C 11.58750 -1.18195 4.49779
C 12.28784 -0.35055 5.53741
O 12.87924 0.69547 5.21696
O 11.96170 -0.80760 6.76016
C 12.62330 -0.00788 7.82530
H 5.38513 1.68164 3.27321
H 6.74845 1.85638 -2.81960
H 11.89150 -1.60687 -1.82478
H 8.91764 -0.45951 5.97712
H 6.72657 1.22858 5.44173
H 7.19010 -1.69266 5.00394
H 6.04903 -0.94144 3.86906
H 5.69393 -0.85732 5.56803
H 8.72935 2.52639 5.51374
H 10.36149 1.79943 5.74365
H 8.68751 0.89821 7.86335
H 8.14064 2.49978 7.51577
H 4.16165 3.26146 2.60388
H 3.29534 3.38090 1.10908
H 4.33014 4.74978 1.58040
H 3.25775 4.45834 -0.84364
H 3.84659 5.46847 -2.28573
H 4.55449 5.61989 -0.65191
H 8.71803 1.10493 -4.25339
H 9.96183 -1.54166 -3.70086
H 7.28559 -0.30140 -5.30194
H 6.78908 -0.88624 -3.67484
H 8.01360 -1.69687 -4.51095
H 10.88823 0.14618 -5.33327
H 12.07149 -0.56678 -4.25319
H 10.83737 2.08789 -4.36178
H 12.57973 1.69645 -4.12561
H 11.38207 1.58270 -2.75924
H 14.37502 -2.54624 0.69591
H 13.48141 -2.62290 -0.85708
H 12.98894 -3.71874 0.49528
H 11.06150 -2.02997 4.93798
H 13.18484 -0.70976 8.44959
H 11.81370 0.56531 8.31494
H 13.40526 0.67912 7.52359

