%nproc=24
%mem=175gb
#p cam-b3lyp/Def2SVP td=(nstates=5)

TDDFT excited states in gaussian

0 1
Mg 0.00000 0.00000 0.00000
C -0.21700 -2.21800 2.80100
C -1.25500 2.44200 2.02600
C -0.24500 1.85000 -2.56400
C 0.14600 -2.82400 -2.03700
N -0.61700 -0.00900 2.12600
C -0.59400 -0.90800 3.10500
C -0.93600 -0.30900 4.50200
C -1.77300 0.96400 4.03200
C -1.15500 1.16800 2.66000
C -3.26300 0.68500 3.86300
C 0.34500 0.11000 5.29900
C 0.12400 0.39700 6.78700
H 1.16800 0.03300 7.73300
N -0.18500 1.96100 -0.15200
C -0.70300 2.80000 0.77700
C -0.62000 4.15600 0.19300
C -0.18700 4.01500 -1.22500
C -0.21400 2.58300 -1.38000
C -0.88700 5.40600 0.97400
C 0.18100 5.01300 -2.27700
O 0.30300 4.69000 -3.50800
C 0.31000 6.41400 -1.83700
N -0.26500 -0.41300 -2.02900
C -0.27900 0.56900 -2.93700
C -0.19600 0.02400 -4.33200
C 0.12400 -1.53300 -4.18000
C 0.08600 -1.63200 -2.63500
C -1.45100 0.20500 -5.19700
C 1.37300 -2.07000 -4.92300
C 2.62600 -1.49000 -4.30600
N 0.15000 -2.14400 0.30300
C 0.17300 -3.13600 -0.68800
C 0.17300 -4.43800 0.00400
C 0.13300 -4.11100 1.35800
C 0.08300 -2.69500 1.50200
C 0.14900 -5.71500 -0.62300
C 0.09600 -4.62900 2.71600
O 0.20800 -5.74700 3.22100
C -0.25500 -3.42800 3.70100
C 0.71700 -3.48200 4.84800
O 1.93100 -3.25500 4.66900
O 0.03800 -3.55600 6.00300
C 0.94300 -3.58300 7.18300
H -1.85900 3.22000 2.49700
H -0.21800 2.45300 -3.47400
H 0.27600 -3.74700 -2.60500
H -1.55400 -0.94900 5.13200
H -1.58500 1.83100 4.66500
H -3.48400 -0.37700 3.96900
H -3.51100 1.02700 2.85800
H -3.85200 1.30100 4.54300
H 0.66900 1.09600 4.96600
H 1.13000 -0.63900 5.18900
H -0.84400 0.02600 7.12500
H 0.06200 1.47700 6.92100
H -1.34400 5.18600 1.93800
H -1.65100 5.96300 0.43200
H 0.00700 6.02000 1.08400
H -0.63500 6.74400 -1.40500
H 0.66500 6.97000 -2.70400
H 1.04800 6.46600 -1.03600
H 0.60800 0.50100 -4.89100
H -0.69200 -2.15600 -4.54700
H -1.26700 0.74000 -6.12900
H -2.20400 0.71400 -4.59600
H -1.96700 -0.72000 -5.45300
H 1.35600 -1.75900 -5.96700
H 1.45200 -3.15700 -4.90200
H 2.71400 -0.52200 -4.79800
H 3.48700 -2.12100 -4.52900
H 2.49500 -1.30300 -3.24000
H 0.86700 -6.33300 -0.08400
H 0.40400 -5.64200 -1.68000
H -0.89100 -5.99900 -0.46300
H -1.28300 -3.58100 4.02800
H 0.69800 -4.47800 7.75500
H 0.83300 -2.61900 7.68000
H 2.00000 -3.75400 6.97600
Mg 31.53830 2.84455 2.40214
C 31.63084 0.64387 5.23542
C 30.00829 5.13204 4.41734
C 31.03534 4.62902 -0.17276
C 32.00776 0.04163 0.38497
N 30.94991 2.77985 4.53330
C 31.09143 1.91434 5.52588
C 30.70311 2.46863 6.92285
C 29.69871 3.62916 6.45038
C 30.26968 3.89508 5.05900
C 28.26294 3.15609 6.29507
C 31.93548 3.05544 7.69676
C 31.69045 3.33087 9.18197
H 32.78811 3.11416 10.12040
N 31.10772 4.77520 2.24171
C 30.50592 5.55415 3.16494
C 30.39944 6.88951 2.55696
C 30.83811 6.79521 1.13802
C 30.99441 5.36063 1.00521
C 29.99452 8.10783 3.33488
C 31.06539 7.82462 0.07271
O 31.21592 7.49845 -1.15764
C 31.01339 9.23093 0.49823
N 31.31086 2.38140 0.38816
C 31.15641 3.35060 -0.53094
C 31.28963 2.80082 -1.93108
C 31.80804 1.29821 -1.75511
C 31.79916 1.20636 -0.21339
C 30.01256 2.80323 -2.77100
C 33.10783 0.90906 -2.51127
C 34.28709 1.65323 -1.92736
N 31.96219 0.75046 2.72336
C 32.09373 -0.25390 1.73947
C 32.26515 -1.53840 2.44876
C 32.19788 -1.19260 3.80684
C 31.97841 0.20561 3.93470
C 32.40489 -2.81523 1.83532
C 32.25201 -1.69401 5.16122
O 32.50195 -2.78376 5.67475
C 31.76094 -0.54623 6.14502
C 32.74321 -0.45609 7.28059
O 33.91465 -0.09233 7.07562
O 32.08523 -0.60269 8.44504
C 33.01549 -0.50975 9.60167
H 29.32313 5.83110 4.89771
H 30.97739 5.21417 -1.09348
H 32.25799 -0.86406 -0.17162
H 30.18379 1.76505 7.56243
H 29.79329 4.51251 7.07657
H 28.17609 2.08634 6.41437
H 27.96214 3.45128 5.29837
H 27.60966 3.70258 6.98130
H 32.12556 4.07763 7.34497
H 32.79347 2.42167 7.58352
H 30.77405 2.84966 9.54472
H 31.50086 4.39936 9.31008
H 29.57292 7.83975 4.31150
H 29.15963 8.56853 2.79582
H 30.80216 8.83733 3.42559
H 30.04224 9.43852 0.94123
H 31.28781 9.81336 -0.38345
H 31.75848 9.38569 1.28658
H 32.02249 3.36123 -2.49849
H 31.07017 0.56751 -2.11770
H 30.11754 3.35648 -3.72335
H 29.21253 3.22129 -2.17457
H 29.62305 1.81811 -3.02202
H 33.04006 1.20880 -3.55995
H 33.31563 -0.15560 -2.49342
H 34.24072 2.62334 -2.43118
H 35.21694 1.13519 -2.15328
H 34.14784 1.83182 -0.85481
H 33.19365 -3.33119 2.36649
H 32.63197 -2.72426 0.77516
H 31.40591 -3.22470 2.00748
H 30.76131 -0.81487 6.48875
H 32.88827 -1.42481 10.18833
H 32.77513 0.44702 10.10224
H 34.07862 -0.53818 9.39334

