%nproc=24
%mem=175gb
#p cam-b3lyp/Def2SVP td=(nstates=5)

TDDFT excited states in gaussian

0 1
Mg 0.00000 0.00000 0.00000
C -0.21700 -2.21800 2.80100
C -1.25500 2.44200 2.02600
C -0.24500 1.85000 -2.56400
C 0.14600 -2.82400 -2.03700
N -0.61700 -0.00900 2.12600
C -0.59400 -0.90800 3.10500
C -0.93600 -0.30900 4.50200
C -1.77300 0.96400 4.03200
C -1.15500 1.16800 2.66000
C -3.26300 0.68500 3.86300
C 0.34500 0.11000 5.29900
C 0.12400 0.39700 6.78700
H 1.16800 0.03300 7.73300
N -0.18500 1.96100 -0.15200
C -0.70300 2.80000 0.77700
C -0.62000 4.15600 0.19300
C -0.18700 4.01500 -1.22500
C -0.21400 2.58300 -1.38000
C -0.88700 5.40600 0.97400
C 0.18100 5.01300 -2.27700
O 0.30300 4.69000 -3.50800
C 0.31000 6.41400 -1.83700
N -0.26500 -0.41300 -2.02900
C -0.27900 0.56900 -2.93700
C -0.19600 0.02400 -4.33200
C 0.12400 -1.53300 -4.18000
C 0.08600 -1.63200 -2.63500
C -1.45100 0.20500 -5.19700
C 1.37300 -2.07000 -4.92300
C 2.62600 -1.49000 -4.30600
N 0.15000 -2.14400 0.30300
C 0.17300 -3.13600 -0.68800
C 0.17300 -4.43800 0.00400
C 0.13300 -4.11100 1.35800
C 0.08300 -2.69500 1.50200
C 0.14900 -5.71500 -0.62300
C 0.09600 -4.62900 2.71600
O 0.20800 -5.74700 3.22100
C -0.25500 -3.42800 3.70100
C 0.71700 -3.48200 4.84800
O 1.93100 -3.25500 4.66900
O 0.03800 -3.55600 6.00300
C 0.94300 -3.58300 7.18300
H -1.85900 3.22000 2.49700
H -0.21800 2.45300 -3.47400
H 0.27600 -3.74700 -2.60500
H -1.55400 -0.94900 5.13200
H -1.58500 1.83100 4.66500
H -3.48400 -0.37700 3.96900
H -3.51100 1.02700 2.85800
H -3.85200 1.30100 4.54300
H 0.66900 1.09600 4.96600
H 1.13000 -0.63900 5.18900
H -0.84400 0.02600 7.12500
H 0.06200 1.47700 6.92100
H -1.34400 5.18600 1.93800
H -1.65100 5.96300 0.43200
H 0.00700 6.02000 1.08400
H -0.63500 6.74400 -1.40500
H 0.66500 6.97000 -2.70400
H 1.04800 6.46600 -1.03600
H 0.60800 0.50100 -4.89100
H -0.69200 -2.15600 -4.54700
H -1.26700 0.74000 -6.12900
H -2.20400 0.71400 -4.59600
H -1.96700 -0.72000 -5.45300
H 1.35600 -1.75900 -5.96700
H 1.45200 -3.15700 -4.90200
H 2.71400 -0.52200 -4.79800
H 3.48700 -2.12100 -4.52900
H 2.49500 -1.30300 -3.24000
H 0.86700 -6.33300 -0.08400
H 0.40400 -5.64200 -1.68000
H -0.89100 -5.99900 -0.46300
H -1.28300 -3.58100 4.02800
H 0.69800 -4.47800 7.75500
H 0.83300 -2.61900 7.68000
H 2.00000 -3.75400 6.97600
Mg 7.89086 0.70289 0.60136
C 8.08719 -1.24650 -2.40536
C 7.14278 -2.18830 2.24939
C 7.26908 2.44859 3.17689
C 7.52120 3.52118 -1.41515
N 7.67286 -1.38444 -0.09704
C 7.83128 -2.01529 -1.25085
C 7.78815 -3.56360 -1.14857
C 6.93192 -3.69148 0.20398
C 7.29388 -2.35553 0.84964
C 5.43119 -3.71599 -0.03383
C 9.21669 -4.19188 -0.98564
C 9.27983 -5.70721 -1.18947
H 10.46797 -6.27579 -1.81996
N 7.77675 0.17785 2.51183
C 7.48410 -1.04429 3.00376
C 7.50594 -0.90438 4.46804
C 7.67304 0.53687 4.79910
C 7.55601 1.12560 3.48010
C 7.45483 -2.08108 5.39874
C 7.88814 1.26586 6.09081
O 7.76813 2.53928 6.17338
C 8.15152 0.43636 7.27574
N 7.24678 2.66342 0.85403
C 7.10615 3.19203 2.08233
C 6.90200 4.68665 2.01286
C 7.17739 5.08753 0.48936
C 7.41633 3.68136 -0.10309
C 5.51985 5.18933 2.42924
C 8.24265 6.18847 0.23285
C 9.61419 5.67779 0.61164
N 7.99792 1.12630 -1.51461
C 7.78527 2.37071 -2.14732
C 7.85248 2.13548 -3.60422
C 8.07845 0.75557 -3.71938
C 8.12711 0.16868 -2.42605
C 7.66434 3.11957 -4.61531
C 8.27631 -0.33976 -4.64123
O 8.41965 -0.43475 -5.85949
C 8.16469 -1.70511 -3.83515
C 9.32716 -2.57409 -4.23018
O 10.49115 -2.23935 -3.94786
O 8.86248 -3.75402 -4.67984
C 9.97857 -4.65466 -5.07356
H 6.67991 -2.99316 2.82108
H 7.15594 3.11513 4.03503
H 7.51362 4.36476 -2.10868
H 7.27285 -4.05847 -1.96303
H 7.28211 -4.51828 0.81646
H 5.18385 -3.52382 -1.06729
H 5.01972 -2.94426 0.60348
H 5.00825 -4.65924 0.32356
H 9.51631 -4.13146 0.06855
H 9.92114 -3.71019 -1.63552
H 8.37011 -6.09790 -1.66140
H 9.30099 -6.18868 -0.20878
H 7.16660 -2.99881 4.87141
H 6.63170 -1.89989 6.09837
H 8.37905 -2.20979 5.96613
H 7.32050 -0.24792 7.42950
H 8.36707 1.13948 8.08262
H 9.03564 -0.18095 7.08116
H 7.61226 5.20383 2.64622
H 6.27422 5.48422 0.00277
H 5.55394 5.93015 3.25028
H 4.91717 4.33632 2.71152
H 4.93013 5.63441 1.62967
H 8.04919 7.05758 0.86639
H 8.26476 6.53717 -0.79424
H 9.64951 5.84385 1.69250
H 10.38898 6.24490 0.09966
H 9.69289 4.59777 0.44133
H 8.43189 2.95232 -5.35922
H 7.71920 4.12602 -4.20566
H 6.65425 2.86642 -4.94832
H 7.20742 -2.16011 -4.09242
H 9.79841 -4.95183 -6.11131
H 9.99492 -5.45944 -4.31473
H 10.96963 -4.22230 -5.14639

