%nproc=24
%mem=175gb
#p cam-b3lyp/Def2SVP td=(nstates=5)

TDDFT excited states in gaussian

0 1
Mg 8.94310 0.80905 0.68204
C 9.85433 -1.32958 3.41608
C 8.76711 3.36423 2.93474
C 7.70564 2.61591 -1.61391
C 8.08659 -2.06263 -1.09716
N 9.28904 0.88317 2.86540
C 9.69117 0.02135 3.78731
C 10.00947 0.65733 5.16708
C 9.09596 1.97217 5.04229
C 9.07276 2.11024 3.52141
C 7.67024 1.76244 5.52465
C 11.52723 1.02479 5.32003
C 11.96665 1.36206 6.74653
H 13.30543 0.96583 7.17447
N 8.79446 2.78301 0.54081
C 8.76037 3.67120 1.55632
C 8.62301 4.99466 0.92883
C 8.41312 4.80176 -0.53180
C 8.27241 3.36061 -0.58983
C 8.77428 6.27747 1.69365
C 8.33718 5.75745 -1.68380
O 7.91073 5.39107 -2.83564
C 8.68827 7.15646 -1.39924
N 7.83144 0.36405 -1.01753
C 7.46450 1.33129 -1.87645
C 6.91695 0.74553 -3.15608
C 7.21812 -0.82295 -3.07397
C 7.83484 -0.88851 -1.65949
C 5.42447 0.96468 -3.40281
C 8.00842 -1.45059 -4.25471
C 9.42457 -0.92168 -4.26694
N 9.12669 -1.32204 0.98666
C 8.67866 -2.34838 0.12643
C 8.92423 -3.63197 0.81530
C 9.48135 -3.25931 2.04787
C 9.55766 -1.84266 2.13020
C 8.59425 -4.92220 0.31278
C 10.01244 -3.74186 3.30238
O 10.27787 -4.85093 3.76415
C 10.16074 -2.50987 4.29565
C 11.52612 -2.58058 4.92277
O 12.54836 -2.43630 4.22937
O 11.39602 -2.58906 6.26194
C 12.72395 -2.64736 6.92905
H 8.46213 4.18215 3.58810
H 7.36408 3.18803 -2.47964
H 7.93761 -3.00681 -1.62538
H 9.69842 0.06819 6.02144
H 9.57932 2.83348 5.49602
H 7.47351 0.72761 5.76250
H 7.03388 2.09184 4.71373
H 7.45517 2.42765 6.36581
H 11.71261 1.99078 4.83297
H 12.14958 0.24556 4.92491
H 11.21993 1.05881 7.49043
H 12.01797 2.44903 6.84598
H 8.75908 6.10420 2.77677
H 7.87498 6.87249 1.50112
H 9.65058 6.85129 1.38461
H 8.03414 7.54177 -0.62070
H 8.66037 7.66679 -2.36395
H 9.70728 7.18670 -0.99759
H 7.42678 1.15657 -4.01876
H 6.29146 -1.41458 -3.04049
H 5.21083 1.47568 -4.36057
H 5.02044 1.52858 -2.57256
H 4.81627 0.06189 -3.38666
H 7.56010 -1.15937 -5.20779
H 8.03454 -2.53487 -4.22907
H 9.32681 0.03329 -4.79189
H 10.08284 -1.60167 -4.80390
H 9.77250 -0.70486 -3.25028
H 9.44024 -5.56341 0.52171
H 8.37260 -4.88947 -0.75191
H 7.70579 -5.14292 0.91043
H 9.36499 -2.58936 5.03729
H 12.70913 -3.51574 7.59491
H 12.86658 -1.65555 7.39780
H 13.58600 -2.86944 6.31100

