%nproc=24
%mem=175gb
#p cam-b3lyp/Def2SVP td=(nstates=5)

TDDFT excited states in gaussian

0 1
Mg 0.00000 0.00000 0.00000
C -0.21700 -2.21800 2.80100
C -1.25500 2.44200 2.02600
C -0.24500 1.85000 -2.56400
C 0.14600 -2.82400 -2.03700
N -0.61700 -0.00900 2.12600
C -0.59400 -0.90800 3.10500
C -0.93600 -0.30900 4.50200
C -1.77300 0.96400 4.03200
C -1.15500 1.16800 2.66000
C -3.26300 0.68500 3.86300
C 0.34500 0.11000 5.29900
C 0.12400 0.39700 6.78700
H 1.16800 0.03300 7.73300
N -0.18500 1.96100 -0.15200
C -0.70300 2.80000 0.77700
C -0.62000 4.15600 0.19300
C -0.18700 4.01500 -1.22500
C -0.21400 2.58300 -1.38000
C -0.88700 5.40600 0.97400
C 0.18100 5.01300 -2.27700
O 0.30300 4.69000 -3.50800
C 0.31000 6.41400 -1.83700
N -0.26500 -0.41300 -2.02900
C -0.27900 0.56900 -2.93700
C -0.19600 0.02400 -4.33200
C 0.12400 -1.53300 -4.18000
C 0.08600 -1.63200 -2.63500
C -1.45100 0.20500 -5.19700
C 1.37300 -2.07000 -4.92300
C 2.62600 -1.49000 -4.30600
N 0.15000 -2.14400 0.30300
C 0.17300 -3.13600 -0.68800
C 0.17300 -4.43800 0.00400
C 0.13300 -4.11100 1.35800
C 0.08300 -2.69500 1.50200
C 0.14900 -5.71500 -0.62300
C 0.09600 -4.62900 2.71600
O 0.20800 -5.74700 3.22100
C -0.25500 -3.42800 3.70100
C 0.71700 -3.48200 4.84800
O 1.93100 -3.25500 4.66900
O 0.03800 -3.55600 6.00300
C 0.94300 -3.58300 7.18300
H -1.85900 3.22000 2.49700
H -0.21800 2.45300 -3.47400
H 0.27600 -3.74700 -2.60500
H -1.55400 -0.94900 5.13200
H -1.58500 1.83100 4.66500
H -3.48400 -0.37700 3.96900
H -3.51100 1.02700 2.85800
H -3.85200 1.30100 4.54300
H 0.66900 1.09600 4.96600
H 1.13000 -0.63900 5.18900
H -0.84400 0.02600 7.12500
H 0.06200 1.47700 6.92100
H -1.34400 5.18600 1.93800
H -1.65100 5.96300 0.43200
H 0.00700 6.02000 1.08400
H -0.63500 6.74400 -1.40500
H 0.66500 6.97000 -2.70400
H 1.04800 6.46600 -1.03600
H 0.60800 0.50100 -4.89100
H -0.69200 -2.15600 -4.54700
H -1.26700 0.74000 -6.12900
H -2.20400 0.71400 -4.59600
H -1.96700 -0.72000 -5.45300
H 1.35600 -1.75900 -5.96700
H 1.45200 -3.15700 -4.90200
H 2.71400 -0.52200 -4.79800
H 3.48700 -2.12100 -4.52900
H 2.49500 -1.30300 -3.24000
H 0.86700 -6.33300 -0.08400
H 0.40400 -5.64200 -1.68000
H -0.89100 -5.99900 -0.46300
H -1.28300 -3.58100 4.02800
H 0.69800 -4.47800 7.75500
H 0.83300 -2.61900 7.68000
H 2.00000 -3.75400 6.97600
Mg 8.94065 0.80749 0.68649
C 8.82551 -2.04937 2.85541
C 7.69549 2.63980 3.28010
C 8.60534 3.23993 -1.32304
C 9.07515 -1.41022 -1.99854
N 8.37463 0.25390 2.75178
C 8.43234 -0.84897 3.48302
C 8.12419 -0.63851 4.98977
C 7.24755 0.70174 4.87102
C 7.82733 1.25877 3.57246
C 5.76676 0.43535 4.65738
C 9.42282 -0.40218 5.83814
C 9.22754 -0.49714 7.35293
H 10.30610 -1.06125 8.15975
N 8.72263 2.74750 1.04340
C 8.22120 3.31838 2.15873
C 8.25454 4.76926 1.91789
C 8.66295 5.00109 0.50574
C 8.65924 3.64166 0.00371
C 7.99524 5.77948 2.99754
C 8.98887 6.24225 -0.26853
O 9.08776 6.23219 -1.54640
C 9.09669 7.48798 0.50478
N 8.63932 0.90773 -1.36813
C 8.58102 2.09247 -2.00132
C 8.63609 1.91342 -3.49975
C 8.98857 0.37142 -3.73551
C 8.98838 -0.11518 -2.26970
C 7.35690 2.26467 -4.25914
C 10.22853 0.05983 -4.61761
C 11.48933 0.50195 -3.91029
N 9.13604 -1.33044 0.44329
C 9.14460 -2.05370 -0.76952
C 9.18262 -3.48866 -0.42042
C 9.17020 -3.50139 0.98250
C 9.10706 -2.16912 1.47297
C 9.17394 -4.57039 -1.34557
C 9.18541 -4.33930 2.15994
O 9.32046 -5.54460 2.36671
C 8.83525 -3.44129 3.42380
C 9.83519 -3.74990 4.50426
O 11.03690 -3.46798 4.35253
O 9.17927 -4.12460 5.61770
C 10.12809 -4.43062 6.72129
H 7.09707 3.25724 3.95059
H 8.60078 4.04633 -2.06004
H 9.21769 -2.16160 -2.77814
H 7.53859 -1.42645 5.44805
H 7.44610 1.37818 5.69829
H 5.56449 -0.61398 4.50204
H 5.48810 1.00795 3.78244
H 5.18578 0.84967 5.48632
H 9.71964 0.65106 5.75262
H 10.20463 -1.06978 5.53203
H 8.26833 -0.95896 7.61673
H 9.15793 0.51533 7.75799
H 7.55865 5.31244 3.88898
H 7.20947 6.44744 2.62841
H 8.87910 6.37349 3.23966
H 8.15965 7.67251 1.02474
H 9.42265 8.24746 -0.20854
H 9.86378 7.35576 1.27595
H 9.41909 2.52319 -3.93357
H 8.17062 -0.16049 -4.24331
H 7.51040 3.03186 -5.04140
H 6.61489 2.59399 -3.54395
H 6.85862 1.42366 -4.73833
H 10.18134 0.62628 -5.55091
H 10.31844 -0.98865 -4.88144
H 11.54359 1.56889 -4.14650
H 12.35391 -0.03271 -4.29847
H 11.38355 0.41000 -2.82309
H 9.90770 -5.28463 -0.99636
H 9.39674 -4.23180 -2.35527
H 8.13822 -4.90546 -1.24416
H 7.81642 -3.68547 3.72703
H 9.90835 -5.44829 7.05858
H 10.00028 -3.61668 7.45948
H 11.17907 -4.51335 6.47019

