%nproc=24
%mem=175gb
#p cam-b3lyp/Def2SVP td=(nstates=5)

TDDFT excited states in gaussian

0 1
Mg 0.00000 0.00000 0.00000
C -0.21700 -2.21800 2.80100
C -1.25500 2.44200 2.02600
C -0.24500 1.85000 -2.56400
C 0.14600 -2.82400 -2.03700
N -0.61700 -0.00900 2.12600
C -0.59400 -0.90800 3.10500
C -0.93600 -0.30900 4.50200
C -1.77300 0.96400 4.03200
C -1.15500 1.16800 2.66000
C -3.26300 0.68500 3.86300
C 0.34500 0.11000 5.29900
C 0.12400 0.39700 6.78700
H 1.16800 0.03300 7.73300
N -0.18500 1.96100 -0.15200
C -0.70300 2.80000 0.77700
C -0.62000 4.15600 0.19300
C -0.18700 4.01500 -1.22500
C -0.21400 2.58300 -1.38000
C -0.88700 5.40600 0.97400
C 0.18100 5.01300 -2.27700
O 0.30300 4.69000 -3.50800
C 0.31000 6.41400 -1.83700
N -0.26500 -0.41300 -2.02900
C -0.27900 0.56900 -2.93700
C -0.19600 0.02400 -4.33200
C 0.12400 -1.53300 -4.18000
C 0.08600 -1.63200 -2.63500
C -1.45100 0.20500 -5.19700
C 1.37300 -2.07000 -4.92300
C 2.62600 -1.49000 -4.30600
N 0.15000 -2.14400 0.30300
C 0.17300 -3.13600 -0.68800
C 0.17300 -4.43800 0.00400
C 0.13300 -4.11100 1.35800
C 0.08300 -2.69500 1.50200
C 0.14900 -5.71500 -0.62300
C 0.09600 -4.62900 2.71600
O 0.20800 -5.74700 3.22100
C -0.25500 -3.42800 3.70100
C 0.71700 -3.48200 4.84800
O 1.93100 -3.25500 4.66900
O 0.03800 -3.55600 6.00300
C 0.94300 -3.58300 7.18300
H -1.85900 3.22000 2.49700
H -0.21800 2.45300 -3.47400
H 0.27600 -3.74700 -2.60500
H -1.55400 -0.94900 5.13200
H -1.58500 1.83100 4.66500
H -3.48400 -0.37700 3.96900
H -3.51100 1.02700 2.85800
H -3.85200 1.30100 4.54300
H 0.66900 1.09600 4.96600
H 1.13000 -0.63900 5.18900
H -0.84400 0.02600 7.12500
H 0.06200 1.47700 6.92100
H -1.34400 5.18600 1.93800
H -1.65100 5.96300 0.43200
H 0.00700 6.02000 1.08400
H -0.63500 6.74400 -1.40500
H 0.66500 6.97000 -2.70400
H 1.04800 6.46600 -1.03600
H 0.60800 0.50100 -4.89100
H -0.69200 -2.15600 -4.54700
H -1.26700 0.74000 -6.12900
H -2.20400 0.71400 -4.59600
H -1.96700 -0.72000 -5.45300
H 1.35600 -1.75900 -5.96700
H 1.45200 -3.15700 -4.90200
H 2.71400 -0.52200 -4.79800
H 3.48700 -2.12100 -4.52900
H 2.49500 -1.30300 -3.24000
H 0.86700 -6.33300 -0.08400
H 0.40400 -5.64200 -1.68000
H -0.89100 -5.99900 -0.46300
H -1.28300 -3.58100 4.02800
H 0.69800 -4.47800 7.75500
H 0.83300 -2.61900 7.68000
H 2.00000 -3.75400 6.97600
Mg 8.93732 0.80919 0.68757
C 7.80324 -1.52460 3.16675
C 6.91271 3.12687 2.15859
C 9.56711 2.75394 -1.73911
C 9.94965 -1.92447 -1.22240
N 7.58222 0.69584 2.43201
C 7.27935 -0.22574 3.33386
C 6.42815 0.29373 4.52346
C 5.75695 1.56232 3.80302
C 6.82892 1.84180 2.75162
C 4.45926 1.23003 3.08544
C 7.31118 0.72790 5.74566
C 6.54033 0.95269 7.04835
H 7.18348 0.59196 8.30880
N 8.72848 2.77652 0.53081
C 7.87465 3.56170 1.22055
C 8.09519 4.92892 0.72433
C 9.03163 4.86347 -0.43045
C 9.13128 3.42868 -0.60803
C 7.50723 6.14019 1.38807
C 9.71331 5.91798 -1.24870
O 10.29699 5.63906 -2.35520
C 9.59712 7.30106 -0.76386
N 9.46005 0.46618 -1.29522
C 9.72999 1.48853 -2.12579
C 10.34723 0.99695 -3.41333
C 10.65959 -0.55336 -3.17557
C 10.06099 -0.71813 -1.76138
C 9.48696 1.15612 -4.66673
C 12.12016 -1.02244 -3.41923
C 13.03659 -0.41776 -2.38004
N 9.06824 -1.32783 0.97753
C 9.49607 -2.29146 0.03814
C 9.30045 -3.61889 0.65628
C 8.74652 -3.33417 1.91349
C 8.58803 -1.92957 2.06002
C 9.57743 -4.87212 0.04079
C 8.24997 -3.90305 3.14577
O 8.21391 -5.03449 3.62772
C 7.49981 -2.76400 3.96200
C 7.98204 -2.81849 5.38573
O 9.16507 -2.55351 5.66292
O 6.92367 -2.96043 6.20431
C 7.35010 -3.00840 7.62827
H 6.14450 3.86150 2.40160
H 9.90131 3.38558 -2.56543
H 10.33162 -2.82134 -1.71475
H 5.65983 -0.38959 4.86484
H 5.66539 2.40221 4.48681
H 4.26307 0.16814 3.07875
H 4.57891 1.59904 2.07521
H 3.63235 1.80009 3.51856
H 7.68762 1.74426 5.57232
H 8.10409 0.02480 5.91169
H 5.52514 0.54005 7.00303
H 6.38750 2.02659 7.18025
H 6.73020 5.86493 2.11184
H 6.97141 6.70044 0.61419
H 8.26661 6.78787 1.83140
H 8.54657 7.57468 -0.70109
H 10.22313 7.89783 -1.43008
H 9.99631 7.34917 0.25543
H 11.27582 1.51494 -3.61950
H 10.06758 -1.19550 -3.84417
H 9.98143 1.74271 -5.46390
H 8.55014 1.61612 -4.38159
H 9.15738 0.22380 -5.12209
H 12.47490 -0.66764 -4.39002
H 12.23473 -2.10122 -3.40913
H 13.24895 0.57566 -2.78637
H 13.94620 -1.00688 -2.28214
H 12.51337 -0.27907 -1.42681
H 10.07000 -5.48275 0.78578
H 10.19485 -4.75128 -0.84687
H 8.56299 -5.19670 -0.20586
H 6.42907 -2.95670 3.88478
H 6.94975 -3.93524 8.05062
H 7.00185 -2.05892 8.07657
H 8.40847 -3.12350 7.83091

