%nproc=24
%mem=175gb
#p cam-b3lyp/Def2SVP td=(nstates=5)

TDDFT excited states in gaussian

0 1
Mg 0.00000 0.00000 0.00000
C -0.21700 -2.21800 2.80100
C -1.25500 2.44200 2.02600
C -0.24500 1.85000 -2.56400
C 0.14600 -2.82400 -2.03700
N -0.61700 -0.00900 2.12600
C -0.59400 -0.90800 3.10500
C -0.93600 -0.30900 4.50200
C -1.77300 0.96400 4.03200
C -1.15500 1.16800 2.66000
C -3.26300 0.68500 3.86300
C 0.34500 0.11000 5.29900
C 0.12400 0.39700 6.78700
H 1.16800 0.03300 7.73300
N -0.18500 1.96100 -0.15200
C -0.70300 2.80000 0.77700
C -0.62000 4.15600 0.19300
C -0.18700 4.01500 -1.22500
C -0.21400 2.58300 -1.38000
C -0.88700 5.40600 0.97400
C 0.18100 5.01300 -2.27700
O 0.30300 4.69000 -3.50800
C 0.31000 6.41400 -1.83700
N -0.26500 -0.41300 -2.02900
C -0.27900 0.56900 -2.93700
C -0.19600 0.02400 -4.33200
C 0.12400 -1.53300 -4.18000
C 0.08600 -1.63200 -2.63500
C -1.45100 0.20500 -5.19700
C 1.37300 -2.07000 -4.92300
C 2.62600 -1.49000 -4.30600
N 0.15000 -2.14400 0.30300
C 0.17300 -3.13600 -0.68800
C 0.17300 -4.43800 0.00400
C 0.13300 -4.11100 1.35800
C 0.08300 -2.69500 1.50200
C 0.14900 -5.71500 -0.62300
C 0.09600 -4.62900 2.71600
O 0.20800 -5.74700 3.22100
C -0.25500 -3.42800 3.70100
C 0.71700 -3.48200 4.84800
O 1.93100 -3.25500 4.66900
O 0.03800 -3.55600 6.00300
C 0.94300 -3.58300 7.18300
H -1.85900 3.22000 2.49700
H -0.21800 2.45300 -3.47400
H 0.27600 -3.74700 -2.60500
H -1.55400 -0.94900 5.13200
H -1.58500 1.83100 4.66500
H -3.48400 -0.37700 3.96900
H -3.51100 1.02700 2.85800
H -3.85200 1.30100 4.54300
H 0.66900 1.09600 4.96600
H 1.13000 -0.63900 5.18900
H -0.84400 0.02600 7.12500
H 0.06200 1.47700 6.92100
H -1.34400 5.18600 1.93800
H -1.65100 5.96300 0.43200
H 0.00700 6.02000 1.08400
H -0.63500 6.74400 -1.40500
H 0.66500 6.97000 -2.70400
H 1.04800 6.46600 -1.03600
H 0.60800 0.50100 -4.89100
H -0.69200 -2.15600 -4.54700
H -1.26700 0.74000 -6.12900
H -2.20400 0.71400 -4.59600
H -1.96700 -0.72000 -5.45300
H 1.35600 -1.75900 -5.96700
H 1.45200 -3.15700 -4.90200
H 2.71400 -0.52200 -4.79800
H 3.48700 -2.12100 -4.52900
H 2.49500 -1.30300 -3.24000
H 0.86700 -6.33300 -0.08400
H 0.40400 -5.64200 -1.68000
H -0.89100 -5.99900 -0.46300
H -1.28300 -3.58100 4.02800
H 0.69800 -4.47800 7.75500
H 0.83300 -2.61900 7.68000
H 2.00000 -3.75400 6.97600
Mg 31.53607 2.83253 2.40312
C 28.84348 3.10455 4.76003
C 33.58173 4.10002 4.82042
C 33.82977 3.02876 0.21957
C 29.13194 2.68382 -0.11556
N 31.14586 3.47971 4.48185
C 30.09598 3.47935 5.28938
C 30.42080 3.82760 6.76680
C 31.77426 4.65775 6.52621
C 32.22146 4.02063 5.21214
C 31.53659 6.13876 6.28240
C 30.67845 2.54929 7.63948
C 30.69604 2.79458 9.14987
H 30.15904 1.75988 10.02935
N 33.50190 3.00078 2.61707
C 34.16417 3.51863 3.67278
C 35.59292 3.43243 3.33308
C 35.71284 2.97314 1.92262
C 34.32214 3.00371 1.51629
C 36.68372 3.69353 4.33078
C 36.88645 2.58456 1.07536
O 36.78362 2.44624 -0.19473
C 38.17986 2.46199 1.76351
N 31.50018 3.06637 0.33760
C 32.63861 3.06780 -0.37787
C 32.35304 2.97167 -1.85760
C 30.78869 2.66042 -1.97391
C 30.40665 2.72154 -0.47869
C 32.68695 4.21496 -2.68170
C 30.37993 1.40392 -2.79049
C 30.83395 0.15257 -2.07399
N 29.38156 2.69663 2.31551
C 28.57480 2.67288 1.15678
C 27.16747 2.69067 1.60569
C 27.25387 2.74723 3.00492
C 28.61862 2.78392 3.39937
C 26.02402 2.70434 0.75807
C 26.50080 2.79495 4.23752
O 25.30963 2.70418 4.53183
C 27.49532 3.15608 5.42366
C 27.23462 2.20046 6.55562
O 27.47016 0.98637 6.42478
O 26.95840 2.90217 7.66992
C 26.70338 1.99826 8.82307
H 34.26193 4.69945 5.42614
H 34.58210 2.98511 -0.57136
H 28.32374 2.54061 -0.83596
H 29.68440 4.45156 7.25890
H 32.50118 4.46403 7.31069
H 30.48524 6.36882 6.19360
H 32.05404 6.37197 5.36104
H 32.02490 6.73206 7.06078
H 31.71401 2.21714 7.49100
H 29.96856 1.77958 7.40663
H 30.28197 3.77552 9.41300
H 31.73610 2.84508 9.48114
H 36.29344 4.17210 5.23746
H 37.34657 4.44614 3.89023
H 37.26738 2.79951 4.56038
H 38.42765 3.40856 2.23793
H 38.87748 2.09035 1.01045
H 38.08003 1.72383 2.56711
H 32.90778 2.15684 -2.30638
H 30.24633 3.47838 -2.47052
H 33.39242 4.01322 -3.50976
H 33.08719 4.96824 -2.01618
H 31.82913 4.72412 -3.11769
H 30.88043 1.40425 -3.76191
H 29.31332 1.33867 -2.97778
H 31.87959 0.05762 -2.38173
H 30.24843 -0.70654 -2.39512
H 30.82185 0.29502 -0.98715
H 25.31513 2.00453 1.18024
H 26.28411 2.43969 -0.26471
H 25.72713 3.75269 0.84796
H 27.30275 4.19101 5.70902
H 25.71879 2.26014 9.22266
H 27.57062 2.12350 9.49832
H 26.57272 0.94307 8.61344

