%nproc=24
%mem=175gb
#p cam-b3lyp/Def2SVP td=(nstates=5)

TDDFT excited states in gaussian

0 1
Mg 0.00000 0.00000 0.00000
C -0.21700 -2.21800 2.80100
C -1.25500 2.44200 2.02600
C -0.24500 1.85000 -2.56400
C 0.14600 -2.82400 -2.03700
N -0.61700 -0.00900 2.12600
C -0.59400 -0.90800 3.10500
C -0.93600 -0.30900 4.50200
C -1.77300 0.96400 4.03200
C -1.15500 1.16800 2.66000
C -3.26300 0.68500 3.86300
C 0.34500 0.11000 5.29900
C 0.12400 0.39700 6.78700
H 1.16800 0.03300 7.73300
N -0.18500 1.96100 -0.15200
C -0.70300 2.80000 0.77700
C -0.62000 4.15600 0.19300
C -0.18700 4.01500 -1.22500
C -0.21400 2.58300 -1.38000
C -0.88700 5.40600 0.97400
C 0.18100 5.01300 -2.27700
O 0.30300 4.69000 -3.50800
C 0.31000 6.41400 -1.83700
N -0.26500 -0.41300 -2.02900
C -0.27900 0.56900 -2.93700
C -0.19600 0.02400 -4.33200
C 0.12400 -1.53300 -4.18000
C 0.08600 -1.63200 -2.63500
C -1.45100 0.20500 -5.19700
C 1.37300 -2.07000 -4.92300
C 2.62600 -1.49000 -4.30600
N 0.15000 -2.14400 0.30300
C 0.17300 -3.13600 -0.68800
C 0.17300 -4.43800 0.00400
C 0.13300 -4.11100 1.35800
C 0.08300 -2.69500 1.50200
C 0.14900 -5.71500 -0.62300
C 0.09600 -4.62900 2.71600
O 0.20800 -5.74700 3.22100
C -0.25500 -3.42800 3.70100
C 0.71700 -3.48200 4.84800
O 1.93100 -3.25500 4.66900
O 0.03800 -3.55600 6.00300
C 0.94300 -3.58300 7.18300
H -1.85900 3.22000 2.49700
H -0.21800 2.45300 -3.47400
H 0.27600 -3.74700 -2.60500
H -1.55400 -0.94900 5.13200
H -1.58500 1.83100 4.66500
H -3.48400 -0.37700 3.96900
H -3.51100 1.02700 2.85800
H -3.85200 1.30100 4.54300
H 0.66900 1.09600 4.96600
H 1.13000 -0.63900 5.18900
H -0.84400 0.02600 7.12500
H 0.06200 1.47700 6.92100
H -1.34400 5.18600 1.93800
H -1.65100 5.96300 0.43200
H 0.00700 6.02000 1.08400
H -0.63500 6.74400 -1.40500
H 0.66500 6.97000 -2.70400
H 1.04800 6.46600 -1.03600
H 0.60800 0.50100 -4.89100
H -0.69200 -2.15600 -4.54700
H -1.26700 0.74000 -6.12900
H -2.20400 0.71400 -4.59600
H -1.96700 -0.72000 -5.45300
H 1.35600 -1.75900 -5.96700
H 1.45200 -3.15700 -4.90200
H 2.71400 -0.52200 -4.79800
H 3.48700 -2.12100 -4.52900
H 2.49500 -1.30300 -3.24000
H 0.86700 -6.33300 -0.08400
H 0.40400 -5.64200 -1.68000
H -0.89100 -5.99900 -0.46300
H -1.28300 -3.58100 4.02800
H 0.69800 -4.47800 7.75500
H 0.83300 -2.61900 7.68000
H 2.00000 -3.75400 6.97600
Mg 13.14645 1.17578 0.99865
C 13.29935 0.04195 -2.40284
C 12.48622 -2.05049 1.88740
C 12.56086 2.21058 3.94036
C 12.68146 4.39893 -0.24263
N 12.94480 -0.67589 -0.19421
C 13.08462 -0.99570 -1.47191
C 13.06898 -2.52120 -1.75854
C 12.24881 -3.00074 -0.46385
C 12.60515 -1.86028 0.48748
C 10.74323 -2.99791 -0.67011
C 14.51106 -3.13898 -1.78630
C 14.59351 -4.55396 -2.36318
H 15.77462 -4.92144 -3.13934
N 13.08834 0.18884 2.71945
C 12.82772 -1.12341 2.89648
C 12.88369 -1.35238 4.34858
C 13.03575 -0.03582 5.02553
C 12.87650 0.86035 3.89788
C 12.87469 -2.72472 4.95689
C 13.27112 0.35277 6.45375
O 13.13271 1.56252 6.85399
C 13.57719 -0.73990 7.38856
N 12.47737 2.99697 1.74561
C 12.35883 3.19961 3.06954
C 12.12897 4.65957 3.37950
C 12.35991 5.43337 1.99910
C 12.60667 4.22476 1.06971
C 10.74969 5.01238 3.93582
C 13.40061 6.58645 2.00424
C 14.78918 6.02750 2.21597
N 13.19406 2.11537 -0.94633
C 12.94574 3.47326 -1.24396
C 12.98049 3.61005 -2.71451
C 13.22572 2.30763 -3.17501
C 13.31595 1.41815 -2.07038
C 12.75146 4.81071 -3.44394
C 13.41821 1.48117 -4.34488
O 13.53274 1.69593 -5.55091
C 13.34866 -0.04408 -3.90310
C 14.51480 -0.76165 -4.52578
O 15.67990 -0.48255 -4.19224
O 14.05814 -1.80214 -5.24636
C 15.17845 -2.55170 -5.87475
H 12.05072 -2.98232 2.24923
H 12.45837 2.63961 4.93982
H 12.64306 5.38836 -0.70332
H 12.54164 -2.80859 -2.66025
H 12.62739 -3.94625 -0.08432
H 10.46721 -2.55970 -1.61770
H 10.33535 -2.41851 0.14780
H 10.34454 -4.00946 -0.55110
H 14.83579 -3.33666 -0.75663
H 15.19130 -2.49530 -2.30934
H 13.67875 -4.83444 -2.89936
H 14.64679 -5.26405 -1.53436
H 12.58825 -3.48814 4.22304
H 12.06639 -2.74158 5.69596
H 13.81468 -2.97059 5.45553
H 12.76138 -1.45885 7.38326
H 13.80138 -0.25552 8.34092
H 14.46603 -1.26982 7.02835
H 12.84634 5.01795 4.10754
H 11.43867 5.91903 1.64517
H 10.79223 5.52577 4.91494
H 10.16802 4.10301 4.00824
H 10.13318 5.62972 3.28466
H 13.20899 7.26583 2.83843
H 13.39156 7.18050 1.09649
H 14.84868 5.91969 3.30314
H 15.54178 6.72105 1.84634
H 14.88100 5.02597 1.77989
H 13.50288 4.85090 -4.22128
H 12.80027 5.68427 -2.79719
H 11.73761 4.62659 -3.80928
H 12.39274 -0.44136 -4.24656
H 14.97737 -2.58474 -6.94999
H 15.22662 -3.51964 -5.34133
H 16.16031 -2.09334 -5.85719

