%nproc=24
%mem=175gb
#p cam-b3lyp/Def2SVP td=(nstates=5)

TDDFT excited states in gaussian

0 1
Mg 0.00000 0.00000 0.00000
C -0.21700 -2.21800 2.80100
C -1.25500 2.44200 2.02600
C -0.24500 1.85000 -2.56400
C 0.14600 -2.82400 -2.03700
N -0.61700 -0.00900 2.12600
C -0.59400 -0.90800 3.10500
C -0.93600 -0.30900 4.50200
C -1.77300 0.96400 4.03200
C -1.15500 1.16800 2.66000
C -3.26300 0.68500 3.86300
C 0.34500 0.11000 5.29900
C 0.12400 0.39700 6.78700
H 1.16800 0.03300 7.73300
N -0.18500 1.96100 -0.15200
C -0.70300 2.80000 0.77700
C -0.62000 4.15600 0.19300
C -0.18700 4.01500 -1.22500
C -0.21400 2.58300 -1.38000
C -0.88700 5.40600 0.97400
C 0.18100 5.01300 -2.27700
O 0.30300 4.69000 -3.50800
C 0.31000 6.41400 -1.83700
N -0.26500 -0.41300 -2.02900
C -0.27900 0.56900 -2.93700
C -0.19600 0.02400 -4.33200
C 0.12400 -1.53300 -4.18000
C 0.08600 -1.63200 -2.63500
C -1.45100 0.20500 -5.19700
C 1.37300 -2.07000 -4.92300
C 2.62600 -1.49000 -4.30600
N 0.15000 -2.14400 0.30300
C 0.17300 -3.13600 -0.68800
C 0.17300 -4.43800 0.00400
C 0.13300 -4.11100 1.35800
C 0.08300 -2.69500 1.50200
C 0.14900 -5.71500 -0.62300
C 0.09600 -4.62900 2.71600
O 0.20800 -5.74700 3.22100
C -0.25500 -3.42800 3.70100
C 0.71700 -3.48200 4.84800
O 1.93100 -3.25500 4.66900
O 0.03800 -3.55600 6.00300
C 0.94300 -3.58300 7.18300
H -1.85900 3.22000 2.49700
H -0.21800 2.45300 -3.47400
H 0.27600 -3.74700 -2.60500
H -1.55400 -0.94900 5.13200
H -1.58500 1.83100 4.66500
H -3.48400 -0.37700 3.96900
H -3.51100 1.02700 2.85800
H -3.85200 1.30100 4.54300
H 0.66900 1.09600 4.96600
H 1.13000 -0.63900 5.18900
H -0.84400 0.02600 7.12500
H 0.06200 1.47700 6.92100
H -1.34400 5.18600 1.93800
H -1.65100 5.96300 0.43200
H 0.00700 6.02000 1.08400
H -0.63500 6.74400 -1.40500
H 0.66500 6.97000 -2.70400
H 1.04800 6.46600 -1.03600
H 0.60800 0.50100 -4.89100
H -0.69200 -2.15600 -4.54700
H -1.26700 0.74000 -6.12900
H -2.20400 0.71400 -4.59600
H -1.96700 -0.72000 -5.45300
H 1.35600 -1.75900 -5.96700
H 1.45200 -3.15700 -4.90200
H 2.71400 -0.52200 -4.79800
H 3.48700 -2.12100 -4.52900
H 2.49500 -1.30300 -3.24000
H 0.86700 -6.33300 -0.08400
H 0.40400 -5.64200 -1.68000
H -0.89100 -5.99900 -0.46300
H -1.28300 -3.58100 4.02800
H 0.69800 -4.47800 7.75500
H 0.83300 -2.61900 7.68000
H 2.00000 -3.75400 6.97600
Mg 10.51847 0.93976 0.80190
C 10.72699 -1.37398 -1.93345
C 9.72314 -1.71446 2.79116
C 9.88708 3.00097 3.13004
C 10.19940 3.48519 -1.55706
N 10.28656 -1.21683 0.36880
C 10.45084 -1.98917 -0.69461
C 10.39073 -3.51187 -0.39910
C 9.51879 -3.46105 0.94850
C 9.88751 -2.05774 1.42542
C 8.02053 -3.50201 0.69778
C 11.81092 -4.12727 -0.14148
C 11.86069 -5.65670 -0.15250
H 13.04962 -6.31054 -0.69232
N 10.37852 0.66021 2.76170
C 10.06808 -0.48772 3.39980
C 10.07566 -0.16494 4.83504
C 10.25399 1.30497 4.98433
C 10.15715 1.72414 3.60049
C 10.00251 -1.21473 5.90556
C 10.46271 2.18871 6.17666
O 10.35490 3.46342 6.09710
C 10.70484 1.51255 7.45949
N 9.89189 2.92211 0.79849
C 9.74354 3.60224 1.94886
C 9.55549 5.07800 1.68968
C 9.85129 5.28162 0.13128
C 10.08212 3.81005 -0.27687
C 8.17419 5.64125 2.02309
C 10.93049 6.33210 -0.24884
C 12.29257 5.86103 0.20745
N 10.65254 1.09271 -1.34907
C 10.45948 2.24948 -2.13564
C 10.53987 1.83229 -3.55053
C 10.75289 0.44691 -3.48866
C 10.78165 0.02694 -2.13135
C 10.37269 2.68301 -4.67945
C 10.94936 -0.75738 -4.26313
O 11.10477 -1.00610 -5.45800
C 10.81510 -2.00945 -3.29325
C 11.97276 -2.93146 -3.56205
O 13.13702 -2.57417 -3.31018
O 11.50083 -4.15442 -3.86538
C 12.61177 -5.10726 -4.12946
H 9.24593 -2.43690 3.45391
H 9.77161 3.77113 3.89619
H 10.20790 4.23488 -2.35115
H 9.87914 -4.10068 -1.15100
H 9.85390 -4.20731 1.66416
H 7.78626 -3.43918 -0.35451
H 7.61019 -2.65265 1.22811
H 7.58412 -4.38905 1.16581
H 12.09983 -3.93738 0.90025
H 12.52721 -3.73739 -0.83830
H 10.95211 -6.09559 -0.58240
H 11.86639 -6.01117 0.88111
H 9.71054 -2.18892 5.49434
H 9.17383 -0.93972 6.56701
H 10.91922 -1.27922 6.49561
H 9.86525 0.86041 7.68811
H 10.91894 2.30963 8.17412
H 11.58462 0.86787 7.35459
H 10.26419 5.66444 2.26145
H 8.95751 5.62193 -0.41204
H 8.20708 6.47912 2.74487
H 7.55980 4.83588 2.40312
H 7.59767 5.98743 1.16694
H 10.73918 7.27567 0.26810
H 10.96717 6.54864 -1.31127
H 12.31801 6.16140 1.25922
H 13.07858 6.35236 -0.36247
H 12.36200 4.76750 0.17516
H 11.14641 2.41675 -5.38723
H 10.43348 3.73247 -4.39890
H 9.36368 2.39892 -4.99002
H 9.85602 -2.48472 -3.50269
H 12.43971 -5.53099 -5.12371
H 12.61173 -5.81031 -3.27537
H 13.60795 -4.69626 -4.24423

