%nproc=24
%mem=175gb
#p cam-b3lyp/Def2SVP td=(nstates=5)

TDDFT excited states in gaussian

0 1
Mg 7.87487 0.71276 0.60472
C 9.53010 2.59449 3.17345
C 6.68878 -1.32492 3.06960
C 6.77868 -1.22169 -1.65884
C 10.06898 2.16569 -1.68015
N 8.14371 0.73504 2.80005
C 8.74362 1.53397 3.66962
C 8.42104 1.22453 5.15615
C 8.01673 -0.32152 4.99768
C 7.55225 -0.30482 3.54281
C 9.20051 -1.26774 5.11030
C 7.22191 2.07921 5.69801
C 7.05098 2.05601 7.21854
H 6.59051 3.27059 7.88580
N 6.49803 -0.71396 0.69057
C 6.12634 -1.42173 1.77785
C 5.09461 -2.36159 1.31271
C 5.00530 -2.26416 -0.16960
C 6.12962 -1.39219 -0.44467
C 4.25484 -3.17806 2.25164
C 4.07135 -2.86753 -1.17452
O 4.32358 -2.83809 -2.43084
C 2.89970 -3.57547 -0.63829
N 8.48572 0.33747 -1.34679
C 7.80230 -0.51186 -2.13388
C 8.25975 -0.41298 -3.56962
C 9.22929 0.85764 -3.62508
C 9.23525 1.23694 -2.12792
C 8.99244 -1.63631 -4.12010
C 8.88701 1.95921 -4.66530
C 7.59415 2.64428 -4.28507
N 9.38443 2.25735 0.66412
C 10.20340 2.69108 -0.40136
C 11.15226 3.67845 0.15289
C 10.83206 3.73404 1.51776
C 9.77279 2.82923 1.79840
C 12.17696 4.34681 -0.57472
C 11.15638 4.34458 2.78691
O 11.90898 5.24794 3.14923
C 10.41239 3.54111 3.93900
C 9.74763 4.53941 4.84675
O 8.81673 5.25092 4.42986
O 10.17049 4.33798 6.10809
C 9.53058 5.29709 7.04748
H 6.45112 -2.15418 3.73648
H 6.36490 -1.78573 -2.49797
H 10.71976 2.73610 -2.34633
H 9.26137 1.32161 5.83305
H 7.19404 -0.58429 5.65760
H 10.13860 -0.73520 5.16063
H 9.16541 -1.88944 4.22525
H 9.06331 -1.94378 5.95911
H 6.27910 1.60545 5.39570
H 7.29294 3.09403 5.35781
H 7.93410 1.64973 7.72645
H 6.25188 1.35344 7.46722
H 4.66043 -3.16280 3.27078
H 4.34846 -4.22330 1.93767
H 3.20032 -2.89505 2.22801
H 3.23116 -4.38030 0.01351
H 2.30582 -3.85924 -1.50930
H 2.32662 -2.88078 -0.01411
H 7.41995 -0.24341 -4.23226
H 10.26031 0.57258 -3.88114
H 8.51849 -2.05756 -5.02674
H 9.04700 -2.38200 -3.33812
H 10.04212 -1.47645 -4.36053
H 8.72412 1.51319 -5.64952
H 9.66583 2.70643 -4.77525
H 6.83085 1.97312 -4.69004
H 7.53468 3.63047 -4.74106
H 7.46726 2.66913 -3.19653
H 12.15511 5.38262 -0.26310
H 12.02957 4.25065 -1.64840
H 13.05415 3.79302 -0.22958
H 11.16344 2.94833 4.46257
H 10.33790 5.81551 7.57394
H 8.83437 4.69490 7.66101
H 8.98744 6.13137 6.61919

