%nproc=24
%mem=175gb
#p cam-b3lyp/Def2SVP td=(nstates=5)

TDDFT excited states in gaussian

0 1
Mg 31.54003 2.83882 2.40284
C 29.85218 1.08749 5.04160
C 31.80969 5.48721 4.53542
C 32.62300 4.56150 -0.03170
C 30.14931 0.54435 0.17865
N 30.87803 3.12858 4.49330
C 30.30139 2.37147 5.41451
C 30.27260 2.99660 6.83505
C 30.37772 4.54408 6.41895
C 31.09809 4.38907 5.08115
C 29.02700 5.19125 6.16192
C 31.49790 2.55217 7.70862
C 31.37495 2.87360 9.19970
H 31.93961 1.93288 10.16337
N 32.55898 4.54178 2.38735
C 32.57095 5.49162 3.34597
C 33.45908 6.55380 2.84881
C 33.84018 6.22888 1.44741
C 32.98687 5.08381 1.20092
C 33.92667 7.69216 3.70841
C 34.80276 6.85410 0.48370
O 34.79970 6.55266 -0.76208
C 35.68626 7.89779 1.02373
N 31.23942 2.72217 0.34897
C 31.87083 3.56115 -0.49088
C 31.71787 3.11456 -1.92530
C 31.05327 1.66168 -1.85439
C 30.84608 1.55242 -0.32778
C 30.86799 4.01972 -2.81681
C 31.79877 0.51041 -2.58341
C 33.10989 0.22274 -1.88800
N 30.39035 1.01667 2.56432
C 29.88878 0.22793 1.50582
C 29.07339 -0.84510 2.11095
C 29.13883 -0.59060 3.48915
C 29.92193 0.57158 3.72490
C 28.35873 -1.84905 1.39860
C 28.71475 -1.03469 4.79745
O 28.10674 -2.01401 5.22755
C 29.05326 0.10509 5.85230
C 29.72586 -0.53975 7.03311
O 30.84246 -1.07345 6.91075
O 29.04406 -0.23118 8.15128
C 29.67895 -0.83894 9.35102
H 31.74634 6.45025 5.04279
H 33.06258 5.05535 -0.90139
H 29.76291 -0.26771 -0.44098
H 29.35848 2.82199 7.38974
H 30.99286 5.10095 7.12098
H 28.22353 4.47017 6.18661
H 29.09936 5.64365 5.18154
H 28.86426 6.01509 6.86273
H 32.36465 3.17517 7.45297
H 31.69833 1.50630 7.57975
H 30.34916 3.14189 9.48031
H 31.95478 3.77578 9.40917
H 33.35037 7.75612 4.63964
H 33.68335 8.61705 3.17434
H 35.00227 7.66456 3.89544
H 35.08345 8.70141 1.43998
H 36.36169 8.16020 0.20714
H 36.26193 7.47369 1.85401
H 32.68281 3.03628 -2.41095
H 30.05183 1.64908 -2.30913
H 31.40689 4.37951 -3.71359
H 30.51920 4.85387 -2.22261
H 29.93579 3.57959 -3.16680
H 32.04799 0.80774 -3.60500
H 31.22169 -0.40610 -2.64646
H 33.78315 0.97507 -2.30968
H 33.45151 -0.78487 -2.11615
H 33.03460 0.41422 -0.81128
H 28.53157 -2.78216 1.91815
H 28.68053 -1.90545 0.36079
H 27.33904 -1.46594 1.49193
H 28.11380 0.58552 6.12829
H 28.90985 -1.43471 9.85225
H 30.11237 0.00521 9.91961
H 30.44970 -1.58301 9.18750

