%nproc=24
%mem=175gb
#p cam-b3lyp/Def2SVP td=(nstates=5)

TDDFT excited states in gaussian

0 1
Mg 7.87944 0.71401 0.60778
C 5.64385 -1.86035 1.72753
C 5.18472 2.80277 0.50681
C 9.72937 2.87082 -0.80410
C 10.11292 -1.80741 -0.28648
N 5.74221 0.39585 1.08029
C 5.01965 -0.60723 1.55576
C 3.56483 -0.22625 1.94038
C 3.39360 1.05780 0.99129
C 4.85879 1.47303 0.87516
C 2.88266 0.71523 -0.39828
C 3.42811 0.15720 3.45574
C 1.98952 0.24019 3.97083
H 1.71539 -0.18320 5.34125
N 7.64292 2.67409 0.40599
C 6.47962 3.35820 0.41166
C 6.84174 4.76932 0.20727
C 8.29932 4.84210 -0.08407
C 8.61667 3.43247 -0.19499
C 5.86097 5.89346 0.37410
C 9.24772 5.99071 -0.24973
O 10.42295 5.82892 -0.73499
C 8.72726 7.32421 0.08549
N 9.56980 0.55310 -0.59186
C 10.21285 1.64930 -1.03090
C 11.54774 1.29153 -1.63955
C 11.77507 -0.25425 -1.29830
C 10.43272 -0.55882 -0.59777
C 11.66875 1.50244 -3.14861
C 13.09271 -0.62670 -0.56498
C 13.08255 -0.05760 0.83552
N 7.98676 -1.42937 0.85769
C 8.99746 -2.29390 0.38320
C 8.57354 -3.67355 0.69829
C 7.32496 -3.51612 1.31859
C 6.98485 -2.13719 1.36723
C 9.28873 -4.85932 0.36878
C 6.21250 -4.20367 1.93373
O 5.97998 -5.36937 2.25125
C 5.01689 -3.17166 2.11226
C 4.48825 -3.31112 3.51354
O 5.19671 -3.00742 4.48948
O 3.16899 -3.57069 3.46300
C 2.59680 -3.70658 4.82900
H 4.37521 3.47556 0.22235
H 10.45395 3.58101 -1.20917
H 10.79871 -2.64246 -0.44479
H 2.81946 -0.97286 1.69389
H 2.81430 1.83635 1.48081
H 2.83116 -0.35169 -0.55692
H 3.58274 1.16704 -1.08879
H 1.92213 1.20641 -0.57843
H 3.73629 1.20207 3.58990
H 3.99415 -0.51460 4.07131
H 1.27591 -0.21977 3.27647
H 1.69258 1.29129 4.00308
H 4.82974 5.52307 0.42686
H 5.89083 6.48340 -0.54836
H 6.10461 6.54336 1.21727
H 7.85661 7.53732 -0.53015
H 9.57733 8.00242 -0.01099
H 8.38243 7.31390 1.12549
H 12.34510 1.87136 -1.19109
H 11.80238 -0.87252 -2.20760
H 12.50187 2.17382 -3.43008
H 10.72760 1.88979 -3.51568
H 11.78806 0.59234 -3.73401
H 13.94948 -0.17990 -1.07535
H 13.27060 -1.69563 -0.51262
H 13.41472 0.97397 0.68512
H 13.77123 -0.60457 1.47629
H 12.06353 -0.02043 1.23784
H 9.24851 -5.49944 1.24006
H 10.31526 -4.63828 0.08394
H 8.69562 -5.21599 -0.47755
H 4.26125 -3.41305 1.36372
H 2.10422 -4.68284 4.87338
H 1.96015 -2.81399 4.97637
H 3.29084 -3.78200 5.65789

