%nproc=24
%mem=175gb
#p cam-b3lyp/Def2SVP td=(nstates=5)

TDDFT excited states in gaussian

0 1
Mg 10.51626 0.95240 0.80519
C 10.76394 -1.22243 3.64910
C 8.85737 3.15024 2.81819
C 9.88672 2.68747 -1.77563
C 11.14915 -1.82655 -1.20046
N 9.94580 0.86259 2.94031
C 10.14739 0.01319 3.93642
C 9.73329 0.54967 5.33293
C 8.65506 1.64211 4.86083
C 9.19989 1.93573 3.46454
C 7.25101 1.07884 4.71698
C 10.93088 1.21709 6.09605
C 10.67784 1.48476 7.58134
H 11.79252 1.34269 8.51395
N 9.96411 2.85124 0.63756
C 9.32000 3.59589 1.56054
C 9.12610 4.91853 0.94638
C 9.56138 4.84417 -0.47478
C 9.80684 3.42155 -0.60120
C 8.64996 6.11326 1.72056
C 9.71710 5.87994 -1.54677
O 9.88054 5.55709 -2.77636
C 9.57925 7.28253 -1.12816
N 10.30643 0.46475 -1.20492
C 10.08585 1.41723 -2.12799
C 10.24506 0.86920 -3.52610
C 10.85803 -0.59685 -3.34567
C 10.86412 -0.68056 -1.80348
C 8.96540 0.78666 -4.35798
C 12.17521 -0.90765 -4.10798
C 13.30876 -0.08759 -3.53532
N 11.07298 -1.10908 1.13449
C 11.26159 -2.10859 0.15497
C 11.51771 -3.37584 0.86975
C 11.43689 -3.02746 2.22643
C 11.13065 -1.64513 2.34849
C 11.73386 -4.64472 0.26201
C 11.53052 -3.51699 3.58301
O 11.85158 -4.58601 4.10054
C 10.97407 -2.39695 4.56396
C 11.95546 -2.23894 5.69286
O 13.10045 -1.80337 5.47867
O 11.31494 -2.42020 6.86216
C 12.24438 -2.26256 8.01243
H 8.13245 3.80747 3.29925
H 9.78659 3.26272 -2.69896
H 11.45255 -2.71776 -1.75396
H 9.26308 -0.18163 5.97936
H 8.69760 2.53311 5.48186
H 7.23234 0.00642 4.84231
H 6.92631 1.34902 3.72068
H 6.56873 1.58695 5.40448
H 11.05417 2.24724 5.73783
H 11.82635 0.63791 5.98068
H 9.79570 0.94888 7.95231
H 10.42216 2.53990 7.70515
H 8.25188 5.82459 2.70118
H 7.78454 6.51755 1.18441
H 9.41062 6.89258 1.80245
H 8.59962 7.43107 -0.68014
H 9.81123 7.87618 -2.01453
H 10.31780 7.48819 -0.34531
H 10.93782 1.47144 -4.10097
H 10.16545 -1.37449 -3.69986
H 9.02970 1.34015 -5.31380
H 8.14422 1.15686 -3.75869
H 8.63716 -0.22239 -4.60149
H 12.08248 -0.61856 -5.15774
H 12.44969 -1.95702 -4.08597
H 13.19845 0.87489 -4.04381
H 14.26801 -0.54737 -3.76442
H 13.16493 0.08782 -2.46285
H 12.55667 -5.10711 0.79086
H 11.94845 -4.54550 -0.80000
H 10.76367 -5.11525 0.44255
H 9.99539 -2.72602 4.91534
H 12.17847 -3.18055 8.60457
H 11.94728 -1.32005 8.50957
H 13.30593 -2.22523 7.79757

