%nproc=24
%mem=175gb
#p cam-b3lyp/Def2SVP td=(nstates=5)

TDDFT excited states in gaussian

0 1
Mg 15.75982 1.42554 1.20340
C 17.92889 2.35052 3.90869
C 13.69897 0.02422 3.53231
C 14.05834 0.20598 -1.18095
C 18.47381 1.86304 -0.93869
N 15.90348 1.27197 3.40523
C 16.74241 1.71455 4.32970
C 16.24564 1.53275 5.78906
C 15.23033 0.31229 5.54717
C 14.88980 0.56477 4.07987
C 15.89183 -1.05149 5.65614
C 15.49889 2.80279 6.32886
C 15.25924 2.81402 7.84021
H 15.32688 4.09053 8.54620
N 13.90440 0.72171 1.17843
C 13.21353 0.21156 2.21945
C 11.90440 -0.18483 1.67796
C 11.93858 -0.01887 0.19945
C 13.33916 0.29649 0.00190
C 10.75167 -0.58934 2.55032
C 10.88771 -0.13840 -0.86242
O 11.19039 -0.18580 -2.10700
C 9.50122 -0.29229 -0.39826
N 16.24878 0.87783 -0.74166
C 15.30885 0.42316 -1.58886
C 15.83539 0.35568 -3.00257
C 17.25486 1.09156 -2.96792
C 17.34747 1.39167 -1.45572
C 16.00424 -1.04812 -3.58327
C 17.46579 2.26126 -3.96790
C 16.57019 3.42237 -3.60030
N 17.77812 2.17533 1.38318
C 18.75547 2.24619 0.36640
C 20.00552 2.71853 0.99625
C 19.67223 2.86889 2.35079
C 18.31618 2.49593 2.55458
C 21.25187 2.90453 0.33432
C 20.16219 3.24816 3.65647
O 21.20866 3.73354 4.08432
C 19.09099 2.80878 4.74544
C 18.87009 3.97061 5.67488
O 18.35230 5.02242 5.25991
O 19.10400 3.57413 6.93919
C 18.88732 4.68907 7.89928
H 13.09834 -0.64168 4.15255
H 13.48603 -0.10459 -2.05814
H 19.33756 2.11854 -1.55620
H 17.01274 1.24346 6.49733
H 14.34244 0.40842 6.16667
H 16.96359 -0.97212 5.76186
H 15.63943 -1.57466 4.74310
H 15.43817 -1.62669 6.46834
H 14.46035 2.78532 5.97407
H 16.01171 3.69880 6.03764
H 15.85922 2.05605 8.35834
H 14.22591 2.51360 8.02995
H 11.07418 -0.77610 3.58207
H 10.40709 -1.56562 2.19253
H 9.92038 0.11742 2.50440
H 9.42600 -1.17876 0.22703
H 8.88699 -0.27179 -1.30058
H 9.24803 0.56358 0.23735
H 15.18152 0.88536 -3.68447
H 18.07790 0.40048 -3.20212
H 15.44165 -1.20213 -4.52340
H 15.69752 -1.76638 -2.83456
H 17.03267 -1.34545 -3.78105
H 17.17759 1.95410 -4.97624
H 18.49291 2.60698 -4.01778
H 15.61496 3.15258 -4.06056
H 16.95865 4.35135 -4.01278
H 16.41219 3.46982 -2.51659
H 21.65740 3.84170 0.69174
H 21.13096 2.90937 -0.74694
H 21.79179 2.02013 0.68303
H 19.49149 1.93823 5.26631
H 19.81132 4.79875 8.47536
H 17.97160 4.42566 8.46127
H 18.77271 5.68655 7.49142

