%nproc=24
%mem=175gb
#p cam-b3lyp/Def2SVP td=(nstates=5)

TDDFT excited states in gaussian

0 1
Mg 0.00000 0.00000 0.00000
C -0.21700 -2.21800 2.80100
C -1.25500 2.44200 2.02600
C -0.24500 1.85000 -2.56400
C 0.14600 -2.82400 -2.03700
N -0.61700 -0.00900 2.12600
C -0.59400 -0.90800 3.10500
C -0.93600 -0.30900 4.50200
C -1.77300 0.96400 4.03200
C -1.15500 1.16800 2.66000
C -3.26300 0.68500 3.86300
C 0.34500 0.11000 5.29900
C 0.12400 0.39700 6.78700
H 1.16800 0.03300 7.73300
N -0.18500 1.96100 -0.15200
C -0.70300 2.80000 0.77700
C -0.62000 4.15600 0.19300
C -0.18700 4.01500 -1.22500
C -0.21400 2.58300 -1.38000
C -0.88700 5.40600 0.97400
C 0.18100 5.01300 -2.27700
O 0.30300 4.69000 -3.50800
C 0.31000 6.41400 -1.83700
N -0.26500 -0.41300 -2.02900
C -0.27900 0.56900 -2.93700
C -0.19600 0.02400 -4.33200
C 0.12400 -1.53300 -4.18000
C 0.08600 -1.63200 -2.63500
C -1.45100 0.20500 -5.19700
C 1.37300 -2.07000 -4.92300
C 2.62600 -1.49000 -4.30600
N 0.15000 -2.14400 0.30300
C 0.17300 -3.13600 -0.68800
C 0.17300 -4.43800 0.00400
C 0.13300 -4.11100 1.35800
C 0.08300 -2.69500 1.50200
C 0.14900 -5.71500 -0.62300
C 0.09600 -4.62900 2.71600
O 0.20800 -5.74700 3.22100
C -0.25500 -3.42800 3.70100
C 0.71700 -3.48200 4.84800
O 1.93100 -3.25500 4.66900
O 0.03800 -3.55600 6.00300
C 0.94300 -3.58300 7.18300
H -1.85900 3.22000 2.49700
H -0.21800 2.45300 -3.47400
H 0.27600 -3.74700 -2.60500
H -1.55400 -0.94900 5.13200
H -1.58500 1.83100 4.66500
H -3.48400 -0.37700 3.96900
H -3.51100 1.02700 2.85800
H -3.85200 1.30100 4.54300
H 0.66900 1.09600 4.96600
H 1.13000 -0.63900 5.18900
H -0.84400 0.02600 7.12500
H 0.06200 1.47700 6.92100
H -1.34400 5.18600 1.93800
H -1.65100 5.96300 0.43200
H 0.00700 6.02000 1.08400
H -0.63500 6.74400 -1.40500
H 0.66500 6.97000 -2.70400
H 1.04800 6.46600 -1.03600
H 0.60800 0.50100 -4.89100
H -0.69200 -2.15600 -4.54700
H -1.26700 0.74000 -6.12900
H -2.20400 0.71400 -4.59600
H -1.96700 -0.72000 -5.45300
H 1.35600 -1.75900 -5.96700
H 1.45200 -3.15700 -4.90200
H 2.71400 -0.52200 -4.79800
H 3.48700 -2.12100 -4.52900
H 2.49500 -1.30300 -3.24000
H 0.86700 -6.33300 -0.08400
H 0.40400 -5.64200 -1.68000
H -0.89100 -5.99900 -0.46300
H -1.28300 -3.58100 4.02800
H 0.69800 -4.47800 7.75500
H 0.83300 -2.61900 7.68000
H 2.00000 -3.75400 6.97600
Mg 7.87720 0.71371 0.60665
C 5.51212 -1.94168 1.09079
C 5.23042 2.73622 -0.12721
C 9.95409 2.94908 -0.26346
C 10.33781 -1.72908 0.25463
N 5.70019 0.33104 0.52649
C 4.91271 -0.70083 0.79005
C 3.39715 -0.36561 0.80653
C 3.42853 0.93597 -0.13356
C 4.86341 1.39036 0.12592
C 3.28952 0.61389 -1.61217
C 2.87663 -0.02186 2.24629
C 1.35334 0.01285 2.38814
H 0.76012 -0.44975 3.63976
N 7.63927 2.67150 0.38530
C 6.49099 3.32597 0.11253
C 6.84983 4.75017 0.02854
C 8.33121 4.86629 0.11072
C 8.70852 3.46807 0.05865
C 5.82495 5.84514 -0.03530
C 9.25596 6.04188 0.20585
O 10.51924 5.92113 0.02597
C 8.62857 7.35360 0.42325
N 9.81672 0.62370 -0.13667
C 10.51536 1.74578 -0.38319
C 11.96980 1.43609 -0.64609
C 12.15167 -0.11121 -0.28501
C 10.68715 -0.46583 0.05385
C 12.45562 1.68580 -2.07368
C 13.25635 -0.46793 0.74703
C 12.88130 0.06727 2.11022
N 7.98361 -1.43166 0.83933
C 9.10611 -2.25911 0.61708
C 8.65897 -3.65604 0.79340
C 7.29125 -3.54469 1.08569
C 6.90831 -2.17624 1.07127
C 9.46902 -4.81538 0.63252
C 6.08206 -4.27428 1.39270
O 5.81318 -5.45265 1.62264
C 4.84905 -3.27704 1.28511
C 3.99320 -3.46297 2.50801
O 4.42741 -3.16495 3.63462
O 2.73633 -3.75418 2.12609
C 1.84698 -3.93680 3.30402
H 4.49709 3.39514 -0.59299
H 10.73486 3.68661 -0.46328
H 11.06628 -2.54271 0.25811
H 2.75927 -1.12455 0.36962
H 2.72255 1.68792 0.20925
H 3.31124 -0.44991 -1.79656
H 4.12529 1.09937 -2.09883
H 2.38954 1.08504 -2.01761
H 3.11016 1.02691 2.47054
H 3.29191 -0.69374 2.97207
H 0.84887 -0.44817 1.53028
H 1.02615 1.05512 2.36308
H 4.82461 5.44793 -0.24730
H 6.06532 6.45742 -0.91120
H 5.83169 6.48069 0.85279
H 7.93221 7.55944 -0.38618
H 9.45510 8.05496 0.55297
H 8.03656 7.30992 1.34424
H 12.61283 2.02485 -0.00346
H 12.42272 -0.70679 -1.16912
H 13.31192 2.38432 -2.12742
H 11.62398 2.05812 -2.65703
H 12.74405 0.79315 -2.62612
H 14.19920 0.01218 0.47375
H 13.44777 -1.53301 0.82407
H 13.20918 1.11010 2.06468
H 13.40529 -0.47740 2.89305
H 11.79362 0.06936 2.24661
H 9.23285 -5.47685 1.45543
H 10.52699 -4.56202 0.61611
H 9.11588 -5.16653 -0.34075
H 4.31076 -3.51938 0.36800
H 1.38848 -4.92585 3.20789
H 1.16707 -3.06417 3.30316
H 2.31520 -4.01453 4.27828

