%nproc=24
%mem=175gb
#p cam-b3lyp/Def2SVP td=(nstates=5)

TDDFT excited states in gaussian

0 1
Mg 0.00000 0.00000 0.00000
C -0.21700 -2.21800 2.80100
C -1.25500 2.44200 2.02600
C -0.24500 1.85000 -2.56400
C 0.14600 -2.82400 -2.03700
N -0.61700 -0.00900 2.12600
C -0.59400 -0.90800 3.10500
C -0.93600 -0.30900 4.50200
C -1.77300 0.96400 4.03200
C -1.15500 1.16800 2.66000
C -3.26300 0.68500 3.86300
C 0.34500 0.11000 5.29900
C 0.12400 0.39700 6.78700
H 1.16800 0.03300 7.73300
N -0.18500 1.96100 -0.15200
C -0.70300 2.80000 0.77700
C -0.62000 4.15600 0.19300
C -0.18700 4.01500 -1.22500
C -0.21400 2.58300 -1.38000
C -0.88700 5.40600 0.97400
C 0.18100 5.01300 -2.27700
O 0.30300 4.69000 -3.50800
C 0.31000 6.41400 -1.83700
N -0.26500 -0.41300 -2.02900
C -0.27900 0.56900 -2.93700
C -0.19600 0.02400 -4.33200
C 0.12400 -1.53300 -4.18000
C 0.08600 -1.63200 -2.63500
C -1.45100 0.20500 -5.19700
C 1.37300 -2.07000 -4.92300
C 2.62600 -1.49000 -4.30600
N 0.15000 -2.14400 0.30300
C 0.17300 -3.13600 -0.68800
C 0.17300 -4.43800 0.00400
C 0.13300 -4.11100 1.35800
C 0.08300 -2.69500 1.50200
C 0.14900 -5.71500 -0.62300
C 0.09600 -4.62900 2.71600
O 0.20800 -5.74700 3.22100
C -0.25500 -3.42800 3.70100
C 0.71700 -3.48200 4.84800
O 1.93100 -3.25500 4.66900
O 0.03800 -3.55600 6.00300
C 0.94300 -3.58300 7.18300
H -1.85900 3.22000 2.49700
H -0.21800 2.45300 -3.47400
H 0.27600 -3.74700 -2.60500
H -1.55400 -0.94900 5.13200
H -1.58500 1.83100 4.66500
H -3.48400 -0.37700 3.96900
H -3.51100 1.02700 2.85800
H -3.85200 1.30100 4.54300
H 0.66900 1.09600 4.96600
H 1.13000 -0.63900 5.18900
H -0.84400 0.02600 7.12500
H 0.06200 1.47700 6.92100
H -1.34400 5.18600 1.93800
H -1.65100 5.96300 0.43200
H 0.00700 6.02000 1.08400
H -0.63500 6.74400 -1.40500
H 0.66500 6.97000 -2.70400
H 1.04800 6.46600 -1.03600
H 0.60800 0.50100 -4.89100
H -0.69200 -2.15600 -4.54700
H -1.26700 0.74000 -6.12900
H -2.20400 0.71400 -4.59600
H -1.96700 -0.72000 -5.45300
H 1.35600 -1.75900 -5.96700
H 1.45200 -3.15700 -4.90200
H 2.71400 -0.52200 -4.79800
H 3.48700 -2.12100 -4.52900
H 2.49500 -1.30300 -3.24000
H 0.86700 -6.33300 -0.08400
H 0.40400 -5.64200 -1.68000
H -0.89100 -5.99900 -0.46300
H -1.28300 -3.58100 4.02800
H 0.69800 -4.47800 7.75500
H 0.83300 -2.61900 7.68000
H 2.00000 -3.75400 6.97600
Mg 7.89039 0.71502 0.59321
C 7.29513 4.06945 1.72127
C 7.14852 1.80095 -2.55401
C 7.96625 -2.31000 -0.36121
C 7.46400 -0.32226 3.89290
N 7.31196 2.70158 -0.18862
C 7.17771 3.91540 0.32416
C 6.98162 5.03994 -0.72776
C 6.38776 4.14886 -1.92450
C 7.01253 2.80348 -1.56076
C 4.87600 4.00291 -1.87320
C 8.33571 5.71995 -1.13525
C 8.18912 7.02508 -1.92068
H 9.16534 8.08720 -1.69407
N 8.08153 -0.05303 -1.22671
C 7.75222 0.53405 -2.39640
C 8.06606 -0.45076 -3.44322
C 8.45305 -1.72803 -2.78480
C 8.15538 -1.41256 -1.40206
C 8.06046 -0.11325 -4.90592
C 8.98875 -3.02394 -3.31380
O 9.02986 -4.08106 -2.59018
C 9.37687 -3.04288 -4.73172
N 7.52933 -1.08233 1.57379
C 7.68358 -2.25843 0.94062
C 7.63861 -3.41202 1.91405
C 7.66407 -2.74795 3.36868
C 7.62772 -1.25709 2.96692
C 6.42526 -4.33425 1.79708
C 8.77806 -3.22462 4.34053
C 10.13052 -2.77700 3.83470
N 7.64213 1.68374 2.50841
C 7.45437 1.06051 3.76157
C 7.21811 2.13271 4.75001
C 7.26230 3.31338 3.99333
C 7.48860 2.99790 2.62631
C 6.95356 1.94315 6.13572
C 7.15837 4.75416 4.03849
O 7.05722 5.59012 4.93553
C 7.04904 5.29984 2.54964
C 8.01111 6.44683 2.40350
O 9.23750 6.25745 2.48542
O 7.34066 7.53274 1.97730
C 8.25419 8.69385 1.80668
H 6.71495 1.98304 -3.53775
H 8.09277 -3.36413 -0.61868
H 7.41991 -0.55745 4.95846
H 6.26951 5.80631 -0.44608
H 6.75264 4.49020 -2.88975
H 4.46081 4.42584 -0.97049
H 4.68150 2.93928 -1.91694
H 4.42537 4.42899 -2.77416
H 8.83411 5.10032 -1.89182
H 8.95400 5.88390 -0.27416
H 7.16866 7.42394 -1.87053
H 8.34129 6.81076 -2.98131
H 7.57680 0.85326 -5.09388
H 7.41001 -0.84311 -5.39999
H 9.05495 -0.16573 -5.35412
H 8.51864 -2.77786 -5.34463
H 9.81845 -4.02692 -4.90071
H 10.13348 -2.26789 -4.89771
H 8.50917 -4.04661 1.80216
H 6.73539 -2.94660 3.92359
H 6.69670 -5.39315 1.62645
H 5.79518 -3.96949 0.99677
H 5.74859 -4.31754 2.64975
H 8.80642 -4.31639 4.37782
H 8.64445 -2.87103 5.35745
H 10.38794 -3.54845 3.10280
H 10.85305 -2.74752 4.64779
H 10.05417 -1.82481 3.29697
H 7.54297 2.67747 6.66851
H 7.19722 0.93109 6.45219
H 5.87685 2.13165 6.15630
H 6.01558 5.60938 2.38924
H 7.84894 9.51081 2.41168
H 8.32352 8.86160 0.71544
H 9.25566 8.60739 2.21168

