%nproc=24
%mem=175gb
#p cam-b3lyp/Def2SVP td=(nstates=5)

TDDFT excited states in gaussian

0 1
Mg 0.00000 0.00000 0.00000
C -0.21700 -2.21800 2.80100
C -1.25500 2.44200 2.02600
C -0.24500 1.85000 -2.56400
C 0.14600 -2.82400 -2.03700
N -0.61700 -0.00900 2.12600
C -0.59400 -0.90800 3.10500
C -0.93600 -0.30900 4.50200
C -1.77300 0.96400 4.03200
C -1.15500 1.16800 2.66000
C -3.26300 0.68500 3.86300
C 0.34500 0.11000 5.29900
C 0.12400 0.39700 6.78700
H 1.16800 0.03300 7.73300
N -0.18500 1.96100 -0.15200
C -0.70300 2.80000 0.77700
C -0.62000 4.15600 0.19300
C -0.18700 4.01500 -1.22500
C -0.21400 2.58300 -1.38000
C -0.88700 5.40600 0.97400
C 0.18100 5.01300 -2.27700
O 0.30300 4.69000 -3.50800
C 0.31000 6.41400 -1.83700
N -0.26500 -0.41300 -2.02900
C -0.27900 0.56900 -2.93700
C -0.19600 0.02400 -4.33200
C 0.12400 -1.53300 -4.18000
C 0.08600 -1.63200 -2.63500
C -1.45100 0.20500 -5.19700
C 1.37300 -2.07000 -4.92300
C 2.62600 -1.49000 -4.30600
N 0.15000 -2.14400 0.30300
C 0.17300 -3.13600 -0.68800
C 0.17300 -4.43800 0.00400
C 0.13300 -4.11100 1.35800
C 0.08300 -2.69500 1.50200
C 0.14900 -5.71500 -0.62300
C 0.09600 -4.62900 2.71600
O 0.20800 -5.74700 3.22100
C -0.25500 -3.42800 3.70100
C 0.71700 -3.48200 4.84800
O 1.93100 -3.25500 4.66900
O 0.03800 -3.55600 6.00300
C 0.94300 -3.58300 7.18300
H -1.85900 3.22000 2.49700
H -0.21800 2.45300 -3.47400
H 0.27600 -3.74700 -2.60500
H -1.55400 -0.94900 5.13200
H -1.58500 1.83100 4.66500
H -3.48400 -0.37700 3.96900
H -3.51100 1.02700 2.85800
H -3.85200 1.30100 4.54300
H 0.66900 1.09600 4.96600
H 1.13000 -0.63900 5.18900
H -0.84400 0.02600 7.12500
H 0.06200 1.47700 6.92100
H -1.34400 5.18600 1.93800
H -1.65100 5.96300 0.43200
H 0.00700 6.02000 1.08400
H -0.63500 6.74400 -1.40500
H 0.66500 6.97000 -2.70400
H 1.04800 6.46600 -1.03600
H 0.60800 0.50100 -4.89100
H -0.69200 -2.15600 -4.54700
H -1.26700 0.74000 -6.12900
H -2.20400 0.71400 -4.59600
H -1.96700 -0.72000 -5.45300
H 1.35600 -1.75900 -5.96700
H 1.45200 -3.15700 -4.90200
H 2.71400 -0.52200 -4.79800
H 3.48700 -2.12100 -4.52900
H 2.49500 -1.30300 -3.24000
H 0.86700 -6.33300 -0.08400
H 0.40400 -5.64200 -1.68000
H -0.89100 -5.99900 -0.46300
H -1.28300 -3.58100 4.02800
H 0.69800 -4.47800 7.75500
H 0.83300 -2.61900 7.68000
H 2.00000 -3.75400 6.97600
Mg 10.51719 0.95397 0.80204
C 10.07247 0.59835 4.34532
C 9.32349 4.13317 1.12201
C 10.47118 1.14925 -2.36453
C 10.57656 -2.52476 0.60049
N 9.82128 2.10334 2.55900
C 9.75572 1.88571 3.86387
C 9.40392 3.13985 4.70823
C 8.64862 3.98933 3.57387
C 9.32662 3.40295 2.33728
C 7.16086 3.69137 3.48936
C 10.68140 3.88667 5.23008
C 10.41600 4.93564 6.31219
H 11.40889 5.11282 7.36825
N 10.44818 2.54229 -0.38584
C 9.95050 3.76068 -0.08730
C 10.11554 4.57172 -1.30349
C 10.60035 3.68534 -2.39620
C 10.50339 2.39222 -1.74927
C 9.89730 6.05673 -1.32706
C 11.06126 3.95537 -3.79650
O 11.21201 3.01082 -4.64969
C 11.24104 5.36676 -4.16683
N 10.31105 -0.47307 -0.69577
C 10.37883 -0.12791 -1.99354
C 10.48095 -1.34776 -2.87780
C 10.71221 -2.57997 -1.88494
C 10.61019 -1.83882 -0.53376
C 9.26846 -1.62982 -3.76476
C 11.95723 -3.47095 -2.14711
C 13.22019 -2.68616 -1.87431
N 10.54232 -0.68534 2.20920
C 10.54056 -2.06560 1.91093
C 10.44340 -2.78850 3.19561
C 10.37161 -1.77030 4.15822
C 10.40022 -0.50233 3.51717
C 10.38241 -4.20196 3.35224
C 10.26743 -1.47984 5.57012
O 10.29208 -2.15307 6.59963
C 9.94165 0.06598 5.74535
C 10.86634 0.61951 6.79466
O 12.09274 0.66821 6.59425
O 10.13554 1.19666 7.76585
C 11.00858 1.77025 8.82444
H 8.75165 5.06037 1.07534
H 10.56501 1.15932 -3.45292
H 10.68781 -3.61079 0.62944
H 8.73568 2.95426 5.54057
H 8.86868 5.05003 3.66249
H 6.87783 2.86846 4.12878
H 6.96789 3.44863 2.45260
H 6.58275 4.59571 3.69981
H 11.06891 4.53346 4.43243
H 11.41645 3.18699 5.57760
H 9.41127 4.83991 6.74148
H 10.41486 5.92347 5.84506
H 9.38634 6.40265 -0.42005
H 9.18642 6.26267 -2.13459
H 10.81707 6.61470 -1.51506
H 10.30198 5.89808 -4.03142
H 11.65900 5.35332 -5.17530
H 11.96158 5.82037 -3.47714
H 11.32974 -1.27093 -3.54619
H 9.87431 -3.29183 -1.91694
H 9.51824 -1.68381 -4.84122
H 8.52762 -0.86227 -3.58434
H 8.72168 -2.53986 -3.52377
H 11.99663 -3.76680 -3.19833
H 11.96968 -4.38051 -1.55589
H 13.37363 -2.13379 -2.80621
H 14.05222 -3.35758 -1.67188
H 13.06194 -1.95042 -1.07725
H 11.03845 -4.45261 4.17522
H 10.67466 -4.71615 2.43902
H 9.31890 -4.32813 3.57199
H 8.89419 0.14892 6.03780
H 10.69033 1.32984 9.77440
H 10.91897 2.86818 8.72313
H 12.05843 1.50193 8.80812

