%nproc=24
%mem=175gb
#p cam-b3lyp/Def2SVP td=(nstates=5)

TDDFT excited states in gaussian

0 1
Mg 0.00000 0.00000 0.00000
C -0.21700 -2.21800 2.80100
C -1.25500 2.44200 2.02600
C -0.24500 1.85000 -2.56400
C 0.14600 -2.82400 -2.03700
N -0.61700 -0.00900 2.12600
C -0.59400 -0.90800 3.10500
C -0.93600 -0.30900 4.50200
C -1.77300 0.96400 4.03200
C -1.15500 1.16800 2.66000
C -3.26300 0.68500 3.86300
C 0.34500 0.11000 5.29900
C 0.12400 0.39700 6.78700
H 1.16800 0.03300 7.73300
N -0.18500 1.96100 -0.15200
C -0.70300 2.80000 0.77700
C -0.62000 4.15600 0.19300
C -0.18700 4.01500 -1.22500
C -0.21400 2.58300 -1.38000
C -0.88700 5.40600 0.97400
C 0.18100 5.01300 -2.27700
O 0.30300 4.69000 -3.50800
C 0.31000 6.41400 -1.83700
N -0.26500 -0.41300 -2.02900
C -0.27900 0.56900 -2.93700
C -0.19600 0.02400 -4.33200
C 0.12400 -1.53300 -4.18000
C 0.08600 -1.63200 -2.63500
C -1.45100 0.20500 -5.19700
C 1.37300 -2.07000 -4.92300
C 2.62600 -1.49000 -4.30600
N 0.15000 -2.14400 0.30300
C 0.17300 -3.13600 -0.68800
C 0.17300 -4.43800 0.00400
C 0.13300 -4.11100 1.35800
C 0.08300 -2.69500 1.50200
C 0.14900 -5.71500 -0.62300
C 0.09600 -4.62900 2.71600
O 0.20800 -5.74700 3.22100
C -0.25500 -3.42800 3.70100
C 0.71700 -3.48200 4.84800
O 1.93100 -3.25500 4.66900
O 0.03800 -3.55600 6.00300
C 0.94300 -3.58300 7.18300
H -1.85900 3.22000 2.49700
H -0.21800 2.45300 -3.47400
H 0.27600 -3.74700 -2.60500
H -1.55400 -0.94900 5.13200
H -1.58500 1.83100 4.66500
H -3.48400 -0.37700 3.96900
H -3.51100 1.02700 2.85800
H -3.85200 1.30100 4.54300
H 0.66900 1.09600 4.96600
H 1.13000 -0.63900 5.18900
H -0.84400 0.02600 7.12500
H 0.06200 1.47700 6.92100
H -1.34400 5.18600 1.93800
H -1.65100 5.96300 0.43200
H 0.00700 6.02000 1.08400
H -0.63500 6.74400 -1.40500
H 0.66500 6.97000 -2.70400
H 1.04800 6.46600 -1.03600
H 0.60800 0.50100 -4.89100
H -0.69200 -2.15600 -4.54700
H -1.26700 0.74000 -6.12900
H -2.20400 0.71400 -4.59600
H -1.96700 -0.72000 -5.45300
H 1.35600 -1.75900 -5.96700
H 1.45200 -3.15700 -4.90200
H 2.71400 -0.52200 -4.79800
H 3.48700 -2.12100 -4.52900
H 2.49500 -1.30300 -3.24000
H 0.86700 -6.33300 -0.08400
H 0.40400 -5.64200 -1.68000
H -0.89100 -5.99900 -0.46300
H -1.28300 -3.58100 4.02800
H 0.69800 -4.47800 7.75500
H 0.83300 -2.61900 7.68000
H 2.00000 -3.75400 6.97600
Mg 15.77370 1.42347 1.19128
C 15.21430 4.93747 1.65813
C 15.09825 1.90743 -2.11692
C 15.81636 -1.72778 0.82358
C 15.27957 1.03078 4.61872
N 15.23914 3.23471 0.03979
C 15.11621 4.52492 0.31291
C 14.95441 5.43394 -0.93491
C 14.36517 4.34128 -1.95363
C 14.96275 3.08052 -1.33231
C 12.85067 4.22676 -1.90347
C 16.32531 6.00796 -1.43806
C 16.21171 7.14383 -2.45720
H 17.20103 8.21716 -2.41632
N 15.98092 0.32449 -0.44819
C 15.67923 0.68523 -1.71315
C 15.99365 -0.48277 -2.55045
C 16.35000 -1.61823 -1.65687
C 16.03589 -1.04458 -0.36368
C 16.01617 -0.42635 -4.05036
C 16.87322 -2.99718 -1.92317
O 16.88627 -3.89978 -1.01324
C 17.28302 -3.28737 -3.30496
N 15.36892 -0.15265 2.48524
C 15.51430 -1.42871 2.08716
C 15.43587 -2.37798 3.25897
C 15.44923 -1.45255 4.56319
C 15.44282 -0.06352 3.88796
C 14.21000 -3.29029 3.29514
C 16.54024 -1.75202 5.62747
C 17.90735 -1.42469 5.07137
N 15.51107 2.73818 2.88558
C 15.29395 2.36418 4.22985
C 15.05939 3.60605 4.99481
C 15.13410 4.62268 4.03077
C 15.37662 4.05289 2.75171
C 14.77033 3.68386 6.38640
C 15.05238 6.04745 3.80260
O 14.95057 7.03841 4.52465
C 14.97492 6.30472 2.23601
C 15.95725 7.39147 1.89464
O 17.17905 7.20535 2.03307
O 15.31084 8.38625 1.25987
C 16.24524 9.48288 0.89093
H 14.68300 1.90673 -3.12511
H 15.93011 -2.81304 0.77105
H 15.21517 1.00076 5.70850
H 14.25026 6.24857 -0.81525
H 14.75041 4.49034 -2.95898
H 12.42824 4.81714 -1.10401
H 12.64000 3.17644 -1.75019
H 12.42094 4.48146 -2.87651
H 16.82552 5.25083 -2.05555
H 16.93264 6.32309 -0.61195
H 15.19705 7.55790 -2.50152
H 16.37695 6.73195 -3.45573
H 15.55092 0.49362 -4.42532
H 15.36199 -1.22779 -4.41036
H 17.01657 -0.57478 -4.46248
H 16.43875 -3.13150 -3.97232
H 17.71149 -4.29115 -3.27801
H 18.05434 -2.56709 -3.59971
H 16.29788 -3.03326 3.28419
H 14.50899 -1.53151 5.12847
H 14.46721 -4.36574 3.33143
H 13.59833 -3.07461 2.42919
H 13.52049 -3.10494 4.11698
H 16.55068 -2.81756 5.86967
H 16.39645 -1.21182 6.55726
H 18.16386 -2.32323 4.50222
H 18.61752 -1.25198 5.87751
H 17.85452 -0.58973 4.36306
H 15.36296 4.49776 6.78245
H 14.99293 2.74638 6.89173
H 13.69656 3.88649 6.35152
H 13.94913 6.59164 2.00147
H 15.84365 10.40412 1.32421
H 16.33421 9.44152 -0.21095
H 17.23879 9.46145 1.32319

