%nproc=24
%mem=175gb
#p cam-b3lyp/Def2SVP td=(nstates=5)

TDDFT excited states in gaussian

0 1
Mg 10.50345 0.95118 0.80422
C 12.50515 2.31411 3.45274
C 8.78180 -0.77050 3.19301
C 9.02167 -0.60768 -1.52852
C 13.05069 1.85210 -1.39705
N 10.71025 0.86612 3.00473
C 11.46647 1.47443 3.90609
C 11.03720 1.22843 5.37740
C 10.26532 -0.16486 5.17294
C 9.85890 -0.00663 3.70923
C 11.17295 -1.37824 5.28814
C 10.07432 2.34520 5.91380
C 9.86217 2.33793 7.42928
H 9.70063 3.61672 8.11563
N 8.81312 -0.08847 0.82588
C 8.24791 -0.70070 1.88748
C 7.02766 -1.34507 1.37763
C 7.00529 -1.20173 -0.10347
C 8.31819 -0.63282 -0.33310
C 5.98621 -1.94316 2.27824
C 5.97795 -1.53494 -1.14257
O 6.26327 -1.54667 -2.39209
C 4.65301 -1.93793 -0.64897
N 11.05395 0.47069 -1.14217
C 10.20211 -0.16706 -1.96410
C 10.70821 -0.15949 -3.38684
C 11.96456 0.83004 -3.39067
C 12.02445 1.16881 -1.88500
C 11.12799 -1.51673 -3.95081
C 11.93523 2.00073 -4.41110
C 10.84376 2.97956 -4.04238
N 12.34770 2.06926 0.93345
C 13.27718 2.30422 -0.10335
C 14.42662 3.01365 0.49492
C 14.09375 3.12270 1.85352
C 12.83550 2.50568 2.08932
C 15.60458 3.41841 -0.19407
C 14.52554 3.61009 3.14375
O 15.46922 4.29059 3.54393
C 13.57432 2.99687 4.25979
C 13.15471 4.11285 5.17686
O 12.44169 5.04140 4.75733
O 13.48007 3.78963 6.44179
C 13.07392 4.86090 7.39007
H 8.32743 -1.52620 3.83438
H 8.50328 -1.03550 -2.38976
H 13.84061 2.25414 -2.03507
H 11.85673 1.10068 6.07441
H 9.38568 -0.22605 5.80843
H 12.21233 -1.09741 5.37153
H 11.00806 -1.95547 4.38777
H 10.84907 -2.01390 6.11721
H 9.05176 2.12701 5.57988
H 10.40475 3.31621 5.59983
H 10.60244 1.71519 7.94614
H 8.90699 1.85243 7.64364
H 6.35528 -2.04789 3.30596
H 5.82520 -2.97289 1.94119
H 5.03630 -1.40577 2.23874
H 4.75614 -2.81161 -0.00983
H 4.03085 -2.04890 -1.53919
H 4.25425 -1.13366 -0.02068
H 9.95516 0.22605 -4.06313
H 12.89872 0.30157 -3.63127
H 10.58869 -1.79008 -4.87737
H 10.97424 -2.26646 -3.18608
H 12.19052 -1.61935 -4.16463
H 11.69302 1.62724 -5.40910
H 12.87815 2.53202 -4.48615
H 9.94864 2.52734 -4.47980
H 11.04384 3.95749 -4.47558
H 10.69782 3.01563 -2.95653
H 15.83278 4.42116 0.14195
H 15.46683 3.38143 -1.27269
H 16.30678 2.65726 0.15640
H 14.13989 2.22620 4.78494
H 13.97039 5.15206 7.94618
H 12.23353 4.44037 7.97373
H 12.76717 5.81184 6.97047

