%nproc=24
%mem=175gb
#p cam-b3lyp/Def2SVP td=(nstates=5)

TDDFT excited states in gaussian

0 1
Mg 13.14570 1.18889 0.99307
C 12.53432 4.36868 2.54040
C 12.35680 2.65404 -1.98444
C 13.23691 -1.69127 -0.33501
C 12.76786 -0.25915 4.14047
N 12.54046 3.25191 0.47355
C 12.40161 4.39023 1.13634
C 12.18307 5.63597 0.23638
C 11.58288 4.89630 -1.05650
C 12.22380 3.52236 -0.87159
C 10.07319 4.72955 -1.00777
C 13.52614 6.37566 -0.09683
C 13.35867 7.76757 -0.71025
H 14.32811 8.80276 -0.36233
N 13.32191 0.65764 -0.91095
C 12.97351 1.38365 -1.99391
C 13.28354 0.54148 -3.15959
C 13.68961 -0.80438 -2.67123
C 13.40568 -0.66824 -1.25668
C 13.25751 1.06004 -4.56807
C 14.23040 -2.01796 -3.36474
O 14.28947 -3.15717 -2.78030
C 14.60175 -1.85458 -4.77785
N 12.81225 -0.72105 1.74361
C 12.96932 -1.80661 0.96592
C 12.94616 -3.07379 1.78696
C 12.98310 -2.59756 3.31320
C 12.92879 -1.06848 3.10256
C 11.73970 -3.98640 1.56792
C 14.11275 -3.18112 4.20538
C 15.45508 -2.65962 3.74541
N 12.91174 1.90665 3.01746
C 12.74445 1.12898 4.18421
C 12.51052 2.06598 5.30213
C 12.53525 3.33277 4.69953
C 12.74803 3.19393 3.30134
C 12.26420 1.70108 6.65575
C 12.41915 4.75532 4.92666
O 12.32131 5.47083 5.92275
C 12.28725 5.48262 3.51953
C 13.23735 6.64869 3.50851
O 14.46625 6.46313 3.55281
O 12.55229 7.77262 3.22949
C 13.45342 8.95529 3.19649
H 11.90994 2.95386 -2.93276
H 13.36965 -2.70333 -0.72436
H 12.73855 -0.62683 5.16839
H 11.46763 6.35352 0.61983
H 11.93320 5.35996 -1.97500
H 9.66507 5.03140 -0.05464
H 9.88759 3.67791 -1.18285
H 9.60810 5.26082 -1.84310
H 14.02095 5.86117 -0.93063
H 14.15318 6.43644 0.77136
H 12.33540 8.14647 -0.59940
H 13.50008 7.68981 -1.79098
H 12.76313 2.03750 -4.62778
H 12.60770 0.39143 -5.14302
H 14.24702 1.07452 -5.02995
H 13.73396 -1.52346 -5.34333
H 15.04995 -2.80500 -5.07399
H 15.34945 -1.05715 -4.85315
H 13.82090 -3.68031 1.58681
H 12.06289 -2.87389 3.84864
H 12.01843 -5.01263 1.26256
H 11.09693 -3.53046 0.82664
H 11.07312 -4.08393 2.42312
H 14.15121 -4.26857 4.10474
H 13.98816 -2.95952 5.26007
H 15.71057 -3.33029 2.91957
H 16.18697 -2.72514 4.54796
H 15.36392 -1.64823 3.33256
H 12.85340 2.36864 7.27032
H 12.52055 0.65983 6.83978
H 11.18619 1.87444 6.71141
H 11.24926 5.79924 3.41043
H 13.04821 9.68554 3.90375
H 13.50826 9.25954 2.13433
H 14.46038 8.82890 3.57664

