%nproc=24
%mem=175gb
#p cam-b3lyp/Def2SVP td=(nstates=5)

TDDFT excited states in gaussian

0 1
Mg 0.00000 0.00000 0.00000
C -0.21700 -2.21800 2.80100
C -1.25500 2.44200 2.02600
C -0.24500 1.85000 -2.56400
C 0.14600 -2.82400 -2.03700
N -0.61700 -0.00900 2.12600
C -0.59400 -0.90800 3.10500
C -0.93600 -0.30900 4.50200
C -1.77300 0.96400 4.03200
C -1.15500 1.16800 2.66000
C -3.26300 0.68500 3.86300
C 0.34500 0.11000 5.29900
C 0.12400 0.39700 6.78700
H 1.16800 0.03300 7.73300
N -0.18500 1.96100 -0.15200
C -0.70300 2.80000 0.77700
C -0.62000 4.15600 0.19300
C -0.18700 4.01500 -1.22500
C -0.21400 2.58300 -1.38000
C -0.88700 5.40600 0.97400
C 0.18100 5.01300 -2.27700
O 0.30300 4.69000 -3.50800
C 0.31000 6.41400 -1.83700
N -0.26500 -0.41300 -2.02900
C -0.27900 0.56900 -2.93700
C -0.19600 0.02400 -4.33200
C 0.12400 -1.53300 -4.18000
C 0.08600 -1.63200 -2.63500
C -1.45100 0.20500 -5.19700
C 1.37300 -2.07000 -4.92300
C 2.62600 -1.49000 -4.30600
N 0.15000 -2.14400 0.30300
C 0.17300 -3.13600 -0.68800
C 0.17300 -4.43800 0.00400
C 0.13300 -4.11100 1.35800
C 0.08300 -2.69500 1.50200
C 0.14900 -5.71500 -0.62300
C 0.09600 -4.62900 2.71600
O 0.20800 -5.74700 3.22100
C -0.25500 -3.42800 3.70100
C 0.71700 -3.48200 4.84800
O 1.93100 -3.25500 4.66900
O 0.03800 -3.55600 6.00300
C 0.94300 -3.58300 7.18300
H -1.85900 3.22000 2.49700
H -0.21800 2.45300 -3.47400
H 0.27600 -3.74700 -2.60500
H -1.55400 -0.94900 5.13200
H -1.58500 1.83100 4.66500
H -3.48400 -0.37700 3.96900
H -3.51100 1.02700 2.85800
H -3.85200 1.30100 4.54300
H 0.66900 1.09600 4.96600
H 1.13000 -0.63900 5.18900
H -0.84400 0.02600 7.12500
H 0.06200 1.47700 6.92100
H -1.34400 5.18600 1.93800
H -1.65100 5.96300 0.43200
H 0.00700 6.02000 1.08400
H -0.63500 6.74400 -1.40500
H 0.66500 6.97000 -2.70400
H 1.04800 6.46600 -1.03600
H 0.60800 0.50100 -4.89100
H -0.69200 -2.15600 -4.54700
H -1.26700 0.74000 -6.12900
H -2.20400 0.71400 -4.59600
H -1.96700 -0.72000 -5.45300
H 1.35600 -1.75900 -5.96700
H 1.45200 -3.15700 -4.90200
H 2.71400 -0.52200 -4.79800
H 3.48700 -2.12100 -4.52900
H 2.49500 -1.30300 -3.24000
H 0.86700 -6.33300 -0.08400
H 0.40400 -5.64200 -1.68000
H -0.89100 -5.99900 -0.46300
H -1.28300 -3.58100 4.02800
H 0.69800 -4.47800 7.75500
H 0.83300 -2.61900 7.68000
H 2.00000 -3.75400 6.97600
Mg 13.13516 1.17591 1.00532
C 11.38993 3.35868 3.25670
C 15.14693 0.32644 3.62559
C 14.96856 -0.40693 -1.04424
C 11.76499 3.01471 -1.61902
N 13.16475 1.82565 3.11937
C 12.41443 2.61260 3.87573
C 12.73106 2.53823 5.39355
C 14.24997 2.02582 5.29751
C 14.18340 1.31558 3.94703
C 15.26085 3.15572 5.19361
C 11.82183 1.50262 6.14377
C 11.86150 1.59941 7.67047
H 10.63520 1.33212 8.41694
N 14.48625 -0.24294 1.32151
C 15.19113 -0.45795 2.45209
C 16.06555 -1.60654 2.16872
C 15.93830 -1.94825 0.72589
C 15.12412 -0.84204 0.26382
C 16.85102 -2.31374 3.23471
C 16.47293 -3.07622 -0.10361
O 16.43593 -3.04650 -1.38446
C 17.12519 -4.17399 0.62505
N 13.50993 1.41361 -1.02579
C 14.30741 0.55616 -1.68663
C 14.20919 0.76011 -3.17966
C 12.99234 1.77512 -3.39549
C 12.63936 2.06442 -1.91999
C 15.46099 1.31492 -3.85906
C 11.85633 1.31879 -4.35148
C 11.10860 0.15319 -3.74512
N 11.67606 2.75729 0.80965
C 11.26944 3.40030 -0.38001
C 10.34459 4.48571 0.00597
C 10.29485 4.41299 1.40623
C 11.14543 3.36983 1.86212
C 9.72063 5.40331 -0.88554
C 9.72444 4.98836 2.60301
O 8.86955 5.84251 2.83392
C 10.50574 4.41334 3.86210
C 9.48835 3.97513 4.87965
O 8.72037 3.02730 4.63790
O 9.73380 4.60017 6.04560
C 8.75743 4.18971 7.08966
H 15.97325 0.16274 4.31789
H 15.49498 -0.99235 -1.80163
H 11.21955 3.57000 -2.38507
H 12.69126 3.48818 5.91296
H 14.47882 1.31783 6.08980
H 14.78097 4.11667 5.08216
H 15.86462 2.93123 4.32406
H 15.94274 3.13126 6.04846
H 12.23851 0.49624 6.00842
H 10.80675 1.57018 5.80366
H 12.32370 2.53344 8.01240
H 12.52376 0.81781 8.05064
H 16.87509 -1.73584 4.16683
H 17.89433 -2.33566 2.90170
H 16.51080 -3.33844 3.39874
H 17.95777 -3.77953 1.20269
H 17.36148 -4.92620 -0.13009
H 16.41109 -4.58884 1.34517
H 13.98305 -0.17177 -3.68322
H 13.32859 2.72766 -3.83075
H 15.84044 0.66660 -4.67132
H 16.22170 1.46332 -3.10418
H 15.35432 2.31364 -4.27901
H 12.27609 0.96125 -5.29494
H 11.15075 2.10726 -4.59119
H 11.73036 -0.70585 -4.01449
H 10.11305 0.07059 -4.17650
H 11.09536 0.22038 -2.65107
H 8.69059 5.49483 -0.56751
H 9.79041 5.06509 -1.91729
H 10.32700 6.29470 -0.70386
H 11.14723 5.20976 4.24131
H 8.29262 5.10466 7.46978
H 9.33123 3.57876 7.81163
H 7.88775 3.62796 6.76944

