%nproc=24
%mem=175gb
#p cam-b3lyp/Def2SVP td=(nstates=5)

TDDFT excited states in gaussian

0 1
Mg 0.00000 0.00000 0.00000
C -0.21700 -2.21800 2.80100
C -1.25500 2.44200 2.02600
C -0.24500 1.85000 -2.56400
C 0.14600 -2.82400 -2.03700
N -0.61700 -0.00900 2.12600
C -0.59400 -0.90800 3.10500
C -0.93600 -0.30900 4.50200
C -1.77300 0.96400 4.03200
C -1.15500 1.16800 2.66000
C -3.26300 0.68500 3.86300
C 0.34500 0.11000 5.29900
C 0.12400 0.39700 6.78700
H 1.16800 0.03300 7.73300
N -0.18500 1.96100 -0.15200
C -0.70300 2.80000 0.77700
C -0.62000 4.15600 0.19300
C -0.18700 4.01500 -1.22500
C -0.21400 2.58300 -1.38000
C -0.88700 5.40600 0.97400
C 0.18100 5.01300 -2.27700
O 0.30300 4.69000 -3.50800
C 0.31000 6.41400 -1.83700
N -0.26500 -0.41300 -2.02900
C -0.27900 0.56900 -2.93700
C -0.19600 0.02400 -4.33200
C 0.12400 -1.53300 -4.18000
C 0.08600 -1.63200 -2.63500
C -1.45100 0.20500 -5.19700
C 1.37300 -2.07000 -4.92300
C 2.62600 -1.49000 -4.30600
N 0.15000 -2.14400 0.30300
C 0.17300 -3.13600 -0.68800
C 0.17300 -4.43800 0.00400
C 0.13300 -4.11100 1.35800
C 0.08300 -2.69500 1.50200
C 0.14900 -5.71500 -0.62300
C 0.09600 -4.62900 2.71600
O 0.20800 -5.74700 3.22100
C -0.25500 -3.42800 3.70100
C 0.71700 -3.48200 4.84800
O 1.93100 -3.25500 4.66900
O 0.03800 -3.55600 6.00300
C 0.94300 -3.58300 7.18300
H -1.85900 3.22000 2.49700
H -0.21800 2.45300 -3.47400
H 0.27600 -3.74700 -2.60500
H -1.55400 -0.94900 5.13200
H -1.58500 1.83100 4.66500
H -3.48400 -0.37700 3.96900
H -3.51100 1.02700 2.85800
H -3.85200 1.30100 4.54300
H 0.66900 1.09600 4.96600
H 1.13000 -0.63900 5.18900
H -0.84400 0.02600 7.12500
H 0.06200 1.47700 6.92100
H -1.34400 5.18600 1.93800
H -1.65100 5.96300 0.43200
H 0.00700 6.02000 1.08400
H -0.63500 6.74400 -1.40500
H 0.66500 6.97000 -2.70400
H 1.04800 6.46600 -1.03600
H 0.60800 0.50100 -4.89100
H -0.69200 -2.15600 -4.54700
H -1.26700 0.74000 -6.12900
H -2.20400 0.71400 -4.59600
H -1.96700 -0.72000 -5.45300
H 1.35600 -1.75900 -5.96700
H 1.45200 -3.15700 -4.90200
H 2.71400 -0.52200 -4.79800
H 3.48700 -2.12100 -4.52900
H 2.49500 -1.30300 -3.24000
H 0.86700 -6.33300 -0.08400
H 0.40400 -5.64200 -1.68000
H -0.89100 -5.99900 -0.46300
H -1.28300 -3.58100 4.02800
H 0.69800 -4.47800 7.75500
H 0.83300 -2.61900 7.68000
H 2.00000 -3.75400 6.97600
Mg 10.51848 0.94850 0.79143
C 10.02655 4.47632 0.35378
C 9.92022 0.60208 -2.54873
C 10.49982 -2.19504 1.22183
C 9.94729 1.43187 4.19522
N 10.04672 2.42329 -0.78802
C 9.94649 3.74264 -0.84819
C 9.82960 4.31386 -2.28680
C 9.23723 3.01112 -3.01540
C 9.79462 1.93592 -2.08484
C 7.71989 2.93714 -2.97595
C 11.22249 4.72195 -2.88289
C 11.15413 5.56912 -4.15544
H 12.16559 6.60259 -4.35876
N 10.73455 -0.52816 -0.51676
C 10.46622 -0.48981 -1.83881
C 10.77183 -1.83477 -2.35054
C 11.08536 -2.71678 -1.19362
C 10.75796 -1.83348 -0.09240
C 10.82565 -2.15493 -3.81615
C 11.58364 -4.12680 -1.09478
O 11.55877 -4.77375 0.01142
C 12.01465 -4.75931 -2.35002
N 10.05358 -0.24797 2.42687
C 10.17908 -1.58518 2.36310
C 10.05650 -2.21047 3.73218
C 10.06387 -0.98910 4.76455
C 10.10127 0.18731 3.76451
C 8.81055 -3.06501 3.96408
C 11.12653 -1.03092 5.89666
C 12.51132 -0.87484 5.31068
N 10.25065 2.64859 2.09757
C 9.99852 2.62557 3.48681
C 9.77578 4.02269 3.91208
C 9.89194 4.76514 2.72727
C 10.14759 3.89025 1.63699
C 9.46064 4.45007 5.23274
C 9.84589 6.08896 2.14927
O 9.75124 7.23030 2.59883
C 9.80548 5.94821 0.56657
C 10.81791 6.89937 -0.01033
O 12.03235 6.73406 0.20044
O 10.20620 7.71447 -0.88884
C 11.17148 8.66909 -1.49609
H 9.52535 0.35641 -3.53494
H 10.59093 -3.26074 1.44425
H 9.86040 1.67590 5.25615
H 9.14111 5.14380 -2.39147
H 9.64571 2.89826 -4.01629
H 7.29449 3.71514 -2.35959
H 7.48336 1.96187 -2.57104
H 7.31542 2.94776 -3.99213
H 11.71837 3.82669 -3.27959
H 11.81986 5.22351 -2.14654
H 10.14983 5.97530 -4.32676
H 11.33035 4.91840 -5.01540
H 10.38817 -1.35033 -4.41999
H 10.16151 -3.01023 -3.98120
H 11.83064 -2.41764 -4.15328
H 11.18753 -4.76140 -3.05595
H 12.42051 -5.73134 -2.06314
H 12.80724 -4.14793 -2.79571
H 10.90335 -2.85250 3.94132
H 9.11098 -0.90929 5.30812
H 9.04349 -4.10135 4.27362
H 8.22122 -3.06251 3.05677
H 8.10890 -2.66929 4.69640
H 11.10888 -2.00229 6.39694
H 10.97593 -0.27347 6.65861
H 12.75955 -1.89102 4.98997
H 13.20878 -0.51781 6.06575
H 12.49091 -0.24240 4.41555
H 10.06280 5.32743 5.42808
H 9.65257 3.66497 5.96113
H 8.39245 4.65485 5.12179
H 8.79110 6.18398 0.24250
H 10.78145 9.67566 -1.31618
H 11.28160 8.35253 -2.55033
H 12.15546 8.74025 -1.04757

