%nproc=24
%mem=175gb
#p cam-b3lyp/Def2SVP td=(nstates=5)

TDDFT excited states in gaussian

0 1
Mg 13.14620 1.18506 0.99104
C 12.65427 4.71289 0.55339
C 12.54794 0.83865 -2.34912
C 13.12754 -1.95848 1.42144
C 12.57500 1.66844 4.39483
N 12.67444 2.65986 -0.58841
C 12.57420 3.97921 -0.64858
C 12.45731 4.55042 -2.08719
C 11.86494 3.24769 -2.81579
C 12.42233 2.17249 -1.88523
C 10.34761 3.17371 -2.77634
C 13.85020 4.95852 -2.68328
C 13.78184 5.80568 -3.95583
H 14.79331 6.83916 -4.15915
N 13.36226 -0.29159 -0.31715
C 13.09393 -0.25325 -1.63920
C 13.39955 -1.59820 -2.15093
C 13.71308 -2.48022 -0.99401
C 13.38568 -1.59692 0.10721
C 13.45337 -1.91837 -3.61654
C 14.21136 -3.89023 -0.89516
O 14.18648 -4.53719 0.21103
C 14.64236 -4.52274 -2.15041
N 12.68130 -0.01141 2.62648
C 12.80679 -1.34861 2.56271
C 12.68421 -1.97390 3.93179
C 12.69158 -0.75253 4.96416
C 12.72899 0.42387 3.96413
C 11.43827 -2.82844 4.16369
C 13.75424 -0.79436 6.09627
C 15.13904 -0.63828 5.51029
N 12.87837 2.88516 2.29718
C 12.62623 2.86213 3.68642
C 12.40350 4.25926 4.11169
C 12.51966 5.00170 2.92688
C 12.77531 4.12682 1.83660
C 12.08835 4.68664 5.43235
C 12.47360 6.32552 2.34888
O 12.37895 7.46687 2.79844
C 12.43319 6.18478 0.76618
C 13.44562 7.13593 0.18928
O 14.66006 6.97062 0.40005
O 12.83391 7.95104 -0.68923
C 13.79919 8.90565 -1.29648
H 12.15306 0.59298 -3.33533
H 13.21864 -3.02417 1.64386
H 12.48812 1.91247 5.45577
H 11.76882 5.38037 -2.19186
H 12.27342 3.13483 -3.81668
H 9.92220 3.95170 -2.15998
H 10.11107 2.19844 -2.37143
H 9.94313 3.18432 -3.79252
H 14.34608 4.06326 -3.07998
H 14.44757 5.46008 -1.94693
H 12.77755 6.21187 -4.12715
H 13.95806 5.15496 -4.81579
H 13.01588 -1.11376 -4.22037
H 12.78923 -2.77367 -3.78159
H 14.45835 -2.18107 -3.95366
H 13.81524 -4.52483 -2.85634
H 15.04823 -5.49478 -1.86353
H 15.43495 -3.91136 -2.59610
H 13.53106 -2.61593 4.14093
H 11.73869 -0.67272 5.50773
H 11.67120 -3.86478 4.47323
H 10.84893 -2.82594 3.25638
H 10.73662 -2.43272 4.89601
H 13.73660 -1.76573 6.59655
H 13.60364 -0.03690 6.85822
H 15.38726 -1.65445 5.18958
H 15.83649 -0.28124 6.26536
H 15.11863 -0.00584 4.61516
H 12.69051 5.56399 5.62769
H 12.28029 3.90154 6.16074
H 11.02016 4.89142 5.32140
H 11.41881 6.42055 0.44211
H 13.40917 9.91223 -1.11657
H 13.90932 8.58910 -2.35072
H 14.78317 8.97682 -0.84796

