%nproc=24
%mem=175gb
#p cam-b3lyp/Def2SVP td=(nstates=5)

TDDFT excited states in gaussian

0 1
Mg 0.00000 0.00000 0.00000
C -0.21700 -2.21800 2.80100
C -1.25500 2.44200 2.02600
C -0.24500 1.85000 -2.56400
C 0.14600 -2.82400 -2.03700
N -0.61700 -0.00900 2.12600
C -0.59400 -0.90800 3.10500
C -0.93600 -0.30900 4.50200
C -1.77300 0.96400 4.03200
C -1.15500 1.16800 2.66000
C -3.26300 0.68500 3.86300
C 0.34500 0.11000 5.29900
C 0.12400 0.39700 6.78700
H 1.16800 0.03300 7.73300
N -0.18500 1.96100 -0.15200
C -0.70300 2.80000 0.77700
C -0.62000 4.15600 0.19300
C -0.18700 4.01500 -1.22500
C -0.21400 2.58300 -1.38000
C -0.88700 5.40600 0.97400
C 0.18100 5.01300 -2.27700
O 0.30300 4.69000 -3.50800
C 0.31000 6.41400 -1.83700
N -0.26500 -0.41300 -2.02900
C -0.27900 0.56900 -2.93700
C -0.19600 0.02400 -4.33200
C 0.12400 -1.53300 -4.18000
C 0.08600 -1.63200 -2.63500
C -1.45100 0.20500 -5.19700
C 1.37300 -2.07000 -4.92300
C 2.62600 -1.49000 -4.30600
N 0.15000 -2.14400 0.30300
C 0.17300 -3.13600 -0.68800
C 0.17300 -4.43800 0.00400
C 0.13300 -4.11100 1.35800
C 0.08300 -2.69500 1.50200
C 0.14900 -5.71500 -0.62300
C 0.09600 -4.62900 2.71600
O 0.20800 -5.74700 3.22100
C -0.25500 -3.42800 3.70100
C 0.71700 -3.48200 4.84800
O 1.93100 -3.25500 4.66900
O 0.03800 -3.55600 6.00300
C 0.94300 -3.58300 7.18300
H -1.85900 3.22000 2.49700
H -0.21800 2.45300 -3.47400
H 0.27600 -3.74700 -2.60500
H -1.55400 -0.94900 5.13200
H -1.58500 1.83100 4.66500
H -3.48400 -0.37700 3.96900
H -3.51100 1.02700 2.85800
H -3.85200 1.30100 4.54300
H 0.66900 1.09600 4.96600
H 1.13000 -0.63900 5.18900
H -0.84400 0.02600 7.12500
H 0.06200 1.47700 6.92100
H -1.34400 5.18600 1.93800
H -1.65100 5.96300 0.43200
H 0.00700 6.02000 1.08400
H -0.63500 6.74400 -1.40500
H 0.66500 6.97000 -2.70400
H 1.04800 6.46600 -1.03600
H 0.60800 0.50100 -4.89100
H -0.69200 -2.15600 -4.54700
H -1.26700 0.74000 -6.12900
H -2.20400 0.71400 -4.59600
H -1.96700 -0.72000 -5.45300
H 1.35600 -1.75900 -5.96700
H 1.45200 -3.15700 -4.90200
H 2.71400 -0.52200 -4.79800
H 3.48700 -2.12100 -4.52900
H 2.49500 -1.30300 -3.24000
H 0.86700 -6.33300 -0.08400
H 0.40400 -5.64200 -1.68000
H -0.89100 -5.99900 -0.46300
H -1.28300 -3.58100 4.02800
H 0.69800 -4.47800 7.75500
H 0.83300 -2.61900 7.68000
H 2.00000 -3.75400 6.97600
Mg 13.14667 1.17728 0.99407
C 13.10032 2.27041 -2.42383
C 12.63680 -1.98887 -0.16788
C 12.73310 0.24754 3.99939
C 12.51056 4.47825 1.91314
N 12.91572 0.37163 -1.05284
C 12.97757 0.87295 -2.27726
C 12.98445 -0.19043 -3.40807
C 12.26715 -1.38887 -2.61555
C 12.65556 -1.00554 -1.18906
C 10.75156 -1.35879 -2.72235
C 14.43777 -0.58313 -3.85044
C 14.51982 -1.38072 -5.15384
H 15.65539 -1.14795 -6.04197
N 13.23211 -0.63362 1.80147
C 13.02017 -1.81256 1.17981
C 13.18043 -2.84697 2.21348
C 13.34172 -2.17303 3.53049
C 13.08208 -0.79732 3.15617
C 13.25024 -4.31216 1.89447
C 13.66236 -2.68401 4.90245
O 13.51818 -1.95169 5.94445
C 14.06079 -4.09585 4.99967
N 12.47989 2.16631 2.69688
C 12.44560 1.54461 3.88862
C 12.19725 2.52618 5.00898
C 12.31303 3.97584 4.34365
C 12.52947 3.56205 2.87146
C 10.84957 2.39845 5.71879
C 13.31966 4.96771 4.98830
C 14.73418 4.47846 4.77582
N 13.03688 3.08105 -0.02165
C 12.73184 4.33608 0.54924
C 12.66333 5.31259 -0.55718
C 12.91252 4.54752 -1.70656
C 13.10159 3.18648 -1.34421
C 12.35266 6.69567 -0.42801
C 13.04809 4.57998 -3.14506
O 13.07489 5.46893 -3.99523
C 13.05044 3.08550 -3.68627
C 14.19106 2.94471 -4.65667
O 15.36795 3.04619 -4.26776
O 13.71546 2.50025 -5.83422
C 14.81088 2.33416 -6.82634
H 12.25249 -2.98029 -0.40929
H 12.68668 0.00014 5.06246
H 12.41397 5.54483 2.12703
H 12.40544 0.07476 -4.28454
H 12.69632 -2.35124 -2.88204
H 10.40019 -0.46561 -3.21725
H 10.38416 -1.39715 -1.70520
H 10.38973 -2.26957 -3.20803
H 14.83666 -1.32743 -3.14927
H 15.06317 0.28570 -3.91848
H 13.57895 -1.34874 -5.71659
H 14.64847 -2.43729 -4.90661
H 12.93590 -4.51472 0.86318
H 12.49451 -4.81012 2.51155
H 14.22817 -4.74520 2.11535
H 13.26652 -4.72340 4.60245
H 14.33547 -4.25067 6.04487
H 14.93745 -4.25664 4.36231
H 12.95209 2.43208 5.78000
H 11.35699 4.51850 4.38025
H 10.94411 2.24005 6.80969
H 10.29930 1.58611 5.26288
H 10.17375 3.24087 5.58173
H 13.16630 5.01386 6.06927
H 13.23297 5.97977 4.60723
H 14.86997 3.75643 5.58658
H 15.44076 5.30188 4.85814
H 14.82376 3.93230 3.82959
H 13.04842 7.23140 -1.05999
H 12.42109 7.02353 0.60717
H 11.32186 6.69888 -0.79231
H 12.08475 2.90746 -4.16096
H 14.53854 2.92676 -7.70516
H 14.92153 1.24279 -6.96929
H 15.77873 2.75456 -6.57940

