%nproc=24
%mem=175gb
#p cam-b3lyp/Def2SVP td=(nstates=5)

TDDFT excited states in gaussian

0 1
Mg 0.00000 0.00000 0.00000
C -0.21700 -2.21800 2.80100
C -1.25500 2.44200 2.02600
C -0.24500 1.85000 -2.56400
C 0.14600 -2.82400 -2.03700
N -0.61700 -0.00900 2.12600
C -0.59400 -0.90800 3.10500
C -0.93600 -0.30900 4.50200
C -1.77300 0.96400 4.03200
C -1.15500 1.16800 2.66000
C -3.26300 0.68500 3.86300
C 0.34500 0.11000 5.29900
C 0.12400 0.39700 6.78700
H 1.16800 0.03300 7.73300
N -0.18500 1.96100 -0.15200
C -0.70300 2.80000 0.77700
C -0.62000 4.15600 0.19300
C -0.18700 4.01500 -1.22500
C -0.21400 2.58300 -1.38000
C -0.88700 5.40600 0.97400
C 0.18100 5.01300 -2.27700
O 0.30300 4.69000 -3.50800
C 0.31000 6.41400 -1.83700
N -0.26500 -0.41300 -2.02900
C -0.27900 0.56900 -2.93700
C -0.19600 0.02400 -4.33200
C 0.12400 -1.53300 -4.18000
C 0.08600 -1.63200 -2.63500
C -1.45100 0.20500 -5.19700
C 1.37300 -2.07000 -4.92300
C 2.62600 -1.49000 -4.30600
N 0.15000 -2.14400 0.30300
C 0.17300 -3.13600 -0.68800
C 0.17300 -4.43800 0.00400
C 0.13300 -4.11100 1.35800
C 0.08300 -2.69500 1.50200
C 0.14900 -5.71500 -0.62300
C 0.09600 -4.62900 2.71600
O 0.20800 -5.74700 3.22100
C -0.25500 -3.42800 3.70100
C 0.71700 -3.48200 4.84800
O 1.93100 -3.25500 4.66900
O 0.03800 -3.55600 6.00300
C 0.94300 -3.58300 7.18300
H -1.85900 3.22000 2.49700
H -0.21800 2.45300 -3.47400
H 0.27600 -3.74700 -2.60500
H -1.55400 -0.94900 5.13200
H -1.58500 1.83100 4.66500
H -3.48400 -0.37700 3.96900
H -3.51100 1.02700 2.85800
H -3.85200 1.30100 4.54300
H 0.66900 1.09600 4.96600
H 1.13000 -0.63900 5.18900
H -0.84400 0.02600 7.12500
H 0.06200 1.47700 6.92100
H -1.34400 5.18600 1.93800
H -1.65100 5.96300 0.43200
H 0.00700 6.02000 1.08400
H -0.63500 6.74400 -1.40500
H 0.66500 6.97000 -2.70400
H 1.04800 6.46600 -1.03600
H 0.60800 0.50100 -4.89100
H -0.69200 -2.15600 -4.54700
H -1.26700 0.74000 -6.12900
H -2.20400 0.71400 -4.59600
H -1.96700 -0.72000 -5.45300
H 1.35600 -1.75900 -5.96700
H 1.45200 -3.15700 -4.90200
H 2.71400 -0.52200 -4.79800
H 3.48700 -2.12100 -4.52900
H 2.49500 -1.30300 -3.24000
H 0.86700 -6.33300 -0.08400
H 0.40400 -5.64200 -1.68000
H -0.89100 -5.99900 -0.46300
H -1.28300 -3.58100 4.02800
H 0.69800 -4.47800 7.75500
H 0.83300 -2.61900 7.68000
H 2.00000 -3.75400 6.97600
Mg 8.93928 0.81082 0.68535
C 9.34022 -1.32839 3.53879
C 7.15739 2.91107 2.69743
C 8.18647 2.48859 -1.90034
C 9.73382 -1.93385 -1.30993
N 8.38831 0.69711 2.82446
C 8.64887 -0.13242 3.82362
C 8.21014 0.38466 5.21994
C 7.06253 1.40451 4.74902
C 7.57948 1.72410 3.34784
C 5.69587 0.75327 4.61689
C 9.36788 1.13027 5.97208
C 9.10734 1.38970 7.45753
H 10.23428 1.32316 8.38384
N 8.26776 2.67023 0.51145
C 7.58358 3.37799 1.43462
C 7.30319 4.68240 0.81491
C 7.73382 4.62772 -0.60856
C 8.06755 3.22267 -0.72921
C 6.75743 5.84908 1.58592
C 7.81768 5.66529 -1.68681
O 7.99379 5.34658 -2.91573
C 7.59435 7.05872 -1.27456
N 8.74859 0.29986 -1.32086
C 8.46303 1.23147 -2.24741
C 8.64809 0.68682 -3.64365
C 9.35315 -0.73676 -3.45956
C 9.37367 -0.81140 -1.91703
C 7.37123 0.51937 -4.46705
C 10.68272 -0.96832 -4.22852
C 11.76581 -0.07544 -3.66722
N 9.62655 -1.20971 1.02174
C 9.87184 -2.20078 0.04620
C 10.21144 -3.44545 0.76586
C 10.11693 -3.09535 2.12121
C 9.72505 -1.73437 2.23809
C 10.50338 -4.70156 0.16330
C 10.24924 -3.57053 3.47967
O 10.64000 -4.61437 4.00066
C 9.62927 -2.48230 4.45833
C 10.60547 -2.25666 5.58022
O 11.71949 -1.75113 5.35660
O 9.98459 -2.47138 6.75443
C 10.90909 -2.24925 7.89801
H 6.39543 3.52406 3.17966
H 8.04486 3.05131 -2.82596
H 10.08939 -2.80727 -1.86073
H 7.79073 -0.37119 5.87306
H 7.05261 2.29983 5.36519
H 5.74546 -0.31749 4.74784
H 5.34889 0.99699 3.62127
H 4.98707 1.22125 5.30604
H 9.42398 2.16415 5.60780
H 10.29732 0.60793 5.85406
H 8.26289 0.80146 7.83678
H 8.78653 2.42734 7.57753
H 6.38414 5.54136 2.57049
H 5.86512 6.19518 1.05314
H 7.46803 6.67514 1.65902
H 6.61000 7.14784 -0.82115
H 7.78324 7.66089 -2.16540
H 8.32314 7.31474 -0.49743
H 9.29815 1.32826 -4.22596
H 8.70878 -1.55836 -3.80539
H 7.39489 1.07053 -5.42608
H 6.53196 0.84051 -3.86452
H 7.10569 -0.50964 -4.70330
H 10.56574 -0.69144 -5.27915
H 11.02280 -1.99821 -4.20285
H 11.59214 0.87537 -4.17994
H 12.75070 -0.47525 -3.89997
H 11.61761 0.09649 -2.59478
H 11.35678 -5.10837 0.68933
H 10.70498 -4.59491 -0.90054
H 9.56580 -5.23116 0.35234
H 8.67533 -2.87032 4.81754
H 10.90460 -3.16629 8.49527
H 10.55624 -1.32456 8.39217
H 11.96489 -2.14642 7.67630

