%nproc=24
%mem=175gb
#p cam-b3lyp/Def2SVP td=(nstates=5)

TDDFT excited states in gaussian

0 1
Mg 8.92573 0.80334 0.68493
C 9.55775 3.38229 3.09919
C 8.96252 -1.41997 3.27147
C 8.81928 -1.53660 -1.45535
C 10.05980 3.00954 -1.76297
N 9.22998 1.06836 2.85966
C 9.40030 2.10213 3.67001
C 9.32174 1.75480 5.18089
C 9.70940 0.19904 5.09046
C 9.24211 -0.08683 3.66477
C 11.20623 -0.05336 5.16214
C 7.87951 1.95434 5.76586
C 7.79651 1.93225 7.29373
H 6.83107 2.80877 7.95108
N 8.41390 -1.10304 0.89071
C 8.47033 -1.84367 2.01746
C 8.00508 -3.18713 1.63955
C 7.82596 -3.22329 0.16261
C 8.37808 -1.93385 -0.20152
C 7.69919 -4.25596 2.64824
C 7.26400 -4.25383 -0.76926
O 7.42472 -4.17318 -2.03831
C 6.60072 -5.40870 -0.14650
N 9.57043 0.66561 -1.28680
C 9.35440 -0.44807 -2.00859
C 9.65455 -0.21741 -3.47047
C 9.88663 1.35801 -3.61804
C 9.76301 1.77200 -2.13523
C 10.86658 -0.96442 -4.02666
C 9.01708 2.10216 -4.66818
C 7.56895 2.09963 -4.23425
N 9.50197 2.88440 0.61311
C 9.97002 3.60161 -0.50967
C 10.34306 4.95149 -0.03945
C 10.08575 4.91828 1.33939
C 9.60660 3.63170 1.70630
C 10.88997 5.99088 -0.84360
C 10.12058 5.67573 2.56973
O 10.35555 6.84751 2.86209
C 9.89995 4.67565 3.78528
C 8.86906 5.27735 4.70057
O 7.69579 5.42995 4.31749
O 9.38217 5.37131 5.94084
C 8.39312 5.95235 6.88741
H 9.17960 -2.22466 3.97448
H 8.69937 -2.27365 -2.25275
H 10.32920 3.78655 -2.48155
H 10.03452 2.27991 5.80537
H 9.14074 -0.39183 5.80380
H 11.77130 0.86669 5.14320
H 11.44375 -0.66108 4.29883
H 11.44376 -0.66600 6.03654
H 7.27274 1.07012 5.53193
H 7.43889 2.85850 5.39308
H 8.78381 2.02856 7.76160
H 7.44605 0.94613 7.60799
H 8.08367 -3.99351 3.64156
H 8.27475 -5.14214 2.35963
H 6.63914 -4.51699 2.67704
H 7.30328 -5.91896 0.50809
H 6.18667 -5.98886 -0.97346
H 5.78644 -5.04355 0.48929
H 8.81390 -0.50818 -4.08842
H 10.91694 1.59113 -3.92455
H 10.62258 -1.60905 -4.89210
H 11.30309 -1.54929 -3.22795
H 11.69879 -0.33217 -4.33144
H 9.05433 1.58142 -5.62818
H 9.33327 3.12493 -4.84412
H 7.21085 1.12363 -4.57525
H 7.02379 2.90983 -4.71428
H 7.48554 2.11793 -3.14138
H 10.38166 6.90322 -0.56119
H 10.76845 5.77901 -1.90385
H 11.93744 5.94666 -0.53359
H 10.86241 4.54605 4.28171
H 8.86795 6.82231 7.35151
H 8.09742 5.12289 7.55696
H 7.49929 6.39835 6.46716

