%nproc=24
%mem=175gb
#p cam-b3lyp/Def2SVP td=(nstates=5)

TDDFT excited states in gaussian

0 1
Mg 13.14499 1.18600 1.00587
C 13.02985 -1.67086 3.17478
C 11.89983 3.01831 3.59948
C 12.80968 3.61844 -1.00366
C 13.27949 -1.03171 -1.67916
N 12.57897 0.63240 3.07116
C 12.63668 -0.47046 3.80240
C 12.32853 -0.26001 5.30915
C 11.45189 1.08025 5.19040
C 12.03167 1.63728 3.89184
C 9.97110 0.81386 4.97676
C 13.62716 -0.02368 6.15751
C 13.43188 -0.11863 7.67231
H 14.51044 -0.68275 8.47913
N 12.92697 3.12601 1.36278
C 12.42554 3.69689 2.47810
C 12.45888 5.14777 2.23727
C 12.86729 5.37959 0.82512
C 12.86358 4.02017 0.32308
C 12.19958 6.15799 3.31692
C 13.19322 6.62075 0.05085
O 13.29210 6.61069 -1.22702
C 13.30103 7.86649 0.82416
N 12.84366 1.28624 -1.04876
C 12.78536 2.47098 -1.68194
C 12.84043 2.29193 -3.18037
C 13.19291 0.74993 -3.41614
C 13.19272 0.26332 -1.95032
C 11.56124 2.64317 -3.93977
C 14.43287 0.43833 -4.29823
C 15.69367 0.88046 -3.59092
N 13.34038 -0.95193 0.76267
C 13.34894 -1.67519 -0.45014
C 13.38696 -3.11015 -0.10104
C 13.37454 -3.12288 1.30187
C 13.31140 -1.79061 1.79235
C 13.37828 -4.19188 -1.02619
C 13.38975 -3.96080 2.47932
O 13.52480 -5.16609 2.68609
C 13.03959 -3.06278 3.74318
C 14.03953 -3.37139 4.82364
O 15.24124 -3.08947 4.67191
O 13.38361 -3.74609 5.93708
C 14.33243 -4.05212 7.04067
H 11.30141 3.63575 4.26996
H 12.80512 4.42484 -1.74067
H 13.42204 -1.78310 -2.45876
H 11.74293 -1.04794 5.76742
H 11.65044 1.75668 6.01767
H 9.76883 -0.23547 4.82142
H 9.69244 1.38646 4.10182
H 9.39012 1.22817 5.80570
H 13.92398 1.02957 6.07200
H 14.40897 -0.69128 5.85140
H 12.47267 -0.58046 7.93611
H 13.36227 0.89384 8.07736
H 11.76299 5.69095 4.20836
H 11.41381 6.82595 2.94778
H 13.08344 6.75200 3.55903
H 12.36399 8.05102 1.34412
H 13.62699 8.62597 0.11084
H 14.06812 7.73427 1.59533
H 13.62343 2.90170 -3.61419
H 12.37496 0.21802 -3.92393
H 11.71474 3.41037 -4.72202
H 10.81923 2.97250 -3.22457
H 11.06296 1.80217 -4.41896
H 14.38568 1.00479 -5.23154
H 14.52278 -0.61014 -4.56206
H 15.74794 1.94739 -3.82713
H 16.55825 0.34579 -3.97909
H 15.58789 0.78850 -2.50372
H 14.11204 -4.90613 -0.67698
H 13.60108 -3.85329 -2.03589
H 12.34256 -4.52695 -0.92478
H 12.02076 -3.30697 4.04640
H 14.11269 -5.06978 7.37795
H 14.20462 -3.23817 7.77885
H 15.38341 -4.13484 6.78957

