%nproc=24
%mem=175gb
#p cam-b3lyp/Def2SVP td=(nstates=5)

TDDFT excited states in gaussian

0 1
Mg 8.94159 0.80883 0.67252
C 8.36874 4.28364 1.36291
C 8.24467 1.49680 -2.59483
C 8.99662 -2.31276 0.10679
C 8.46924 0.19863 4.07109
N 8.39200 2.68631 -0.35960
C 8.26472 3.95613 -0.00506
C 8.09147 4.94111 -1.19223
C 7.50135 3.91187 -2.27449
C 8.10834 2.61746 -1.73715
C 5.98771 3.78690 -2.22329
C 9.45676 5.55248 -1.66577
C 9.33200 6.74970 -2.61068
H 10.31659 7.82322 -2.50772
N 9.14433 -0.18368 -1.03405
C 8.83362 0.25450 -2.27208
C 9.14853 -0.85688 -3.18303
C 9.51530 -2.04457 -2.36475
C 9.20609 -1.55507 -1.03626
C 9.16206 -0.70600 -4.67651
C 10.04331 -3.40141 -2.72027
O 10.06581 -4.35944 -1.86910
C 10.44640 -3.60197 -4.11984
N 8.55161 -0.84764 1.86682
C 8.70055 -2.09536 1.38835
C 8.63332 -3.11692 2.49844
C 8.65001 -2.27541 3.85828
C 8.63327 -0.84666 3.27194
C 7.41189 -4.03577 2.48383
C 9.74856 -2.63588 4.89554
C 11.11089 -2.26740 4.35362
N 8.68278 2.01291 2.44770
C 8.47521 1.55393 3.76692
C 8.23939 2.74398 4.60989
C 8.30380 3.81966 3.71142
C 8.54149 3.33276 2.39767
C 7.95808 2.73256 6.00519
C 8.21419 5.25554 3.57391
O 8.11202 6.19855 4.35752
C 8.12643 5.61057 2.02710
C 9.10174 6.72152 1.74945
O 10.32517 6.53312 1.86913
O 8.44707 7.75109 1.18220
C 9.37424 8.87340 0.87792
H 7.82356 1.55754 -3.59876
H 9.11506 -3.39198 -0.01464
H 8.41132 0.09972 5.15715
H 7.38429 5.74309 -1.01759
H 7.88004 4.12586 -3.27056
H 5.56723 4.32366 -1.38590
H 5.78278 2.72798 -2.13533
H 5.55116 4.10024 -3.17596
H 9.95685 4.83824 -2.33248
H 10.06743 5.81797 -0.82481
H 8.31520 7.16070 -2.62322
H 9.49331 6.40234 -3.63408
H 8.69040 0.23344 -4.99019
H 8.50949 -1.48642 -5.08266
H 10.16071 -0.82322 -5.10268
H 9.59754 -3.40857 -4.77139
H 10.87963 -4.60331 -4.15855
H 11.21266 -2.86073 -4.37288
H 9.49847 -3.76820 2.47757
H 7.71345 -2.39448 4.42264
H 7.67426 -5.11008 2.45087
H 6.79420 -3.76902 1.63657
H 6.72633 -3.90597 3.31951
H 9.76532 -3.71450 5.07006
H 9.60770 -2.15603 5.85829
H 11.36821 -3.12703 3.72759
H 11.82494 -2.14228 5.16511
H 11.05009 -1.38977 3.69962
H 8.54925 3.52283 6.44846
H 8.18793 1.76623 6.44921
H 6.88320 2.93166 5.98907
H 7.09798 5.90660 1.81677
H 8.97094 9.76352 1.37059
H 9.45699 8.90195 -0.22484
H 10.37038 8.82972 1.30249

