%nproc=24
%mem=175gb
#p cam-b3lyp/Def2SVP td=(nstates=5)

TDDFT excited states in gaussian

0 1
Mg 0.00000 0.00000 0.00000
C -0.21700 -2.21800 2.80100
C -1.25500 2.44200 2.02600
C -0.24500 1.85000 -2.56400
C 0.14600 -2.82400 -2.03700
N -0.61700 -0.00900 2.12600
C -0.59400 -0.90800 3.10500
C -0.93600 -0.30900 4.50200
C -1.77300 0.96400 4.03200
C -1.15500 1.16800 2.66000
C -3.26300 0.68500 3.86300
C 0.34500 0.11000 5.29900
C 0.12400 0.39700 6.78700
H 1.16800 0.03300 7.73300
N -0.18500 1.96100 -0.15200
C -0.70300 2.80000 0.77700
C -0.62000 4.15600 0.19300
C -0.18700 4.01500 -1.22500
C -0.21400 2.58300 -1.38000
C -0.88700 5.40600 0.97400
C 0.18100 5.01300 -2.27700
O 0.30300 4.69000 -3.50800
C 0.31000 6.41400 -1.83700
N -0.26500 -0.41300 -2.02900
C -0.27900 0.56900 -2.93700
C -0.19600 0.02400 -4.33200
C 0.12400 -1.53300 -4.18000
C 0.08600 -1.63200 -2.63500
C -1.45100 0.20500 -5.19700
C 1.37300 -2.07000 -4.92300
C 2.62600 -1.49000 -4.30600
N 0.15000 -2.14400 0.30300
C 0.17300 -3.13600 -0.68800
C 0.17300 -4.43800 0.00400
C 0.13300 -4.11100 1.35800
C 0.08300 -2.69500 1.50200
C 0.14900 -5.71500 -0.62300
C 0.09600 -4.62900 2.71600
O 0.20800 -5.74700 3.22100
C -0.25500 -3.42800 3.70100
C 0.71700 -3.48200 4.84800
O 1.93100 -3.25500 4.66900
O 0.03800 -3.55600 6.00300
C 0.94300 -3.58300 7.18300
H -1.85900 3.22000 2.49700
H -0.21800 2.45300 -3.47400
H 0.27600 -3.74700 -2.60500
H -1.55400 -0.94900 5.13200
H -1.58500 1.83100 4.66500
H -3.48400 -0.37700 3.96900
H -3.51100 1.02700 2.85800
H -3.85200 1.30100 4.54300
H 0.66900 1.09600 4.96600
H 1.13000 -0.63900 5.18900
H -0.84400 0.02600 7.12500
H 0.06200 1.47700 6.92100
H -1.34400 5.18600 1.93800
H -1.65100 5.96300 0.43200
H 0.00700 6.02000 1.08400
H -0.63500 6.74400 -1.40500
H 0.66500 6.97000 -2.70400
H 1.04800 6.46600 -1.03600
H 0.60800 0.50100 -4.89100
H -0.69200 -2.15600 -4.54700
H -1.26700 0.74000 -6.12900
H -2.20400 0.71400 -4.59600
H -1.96700 -0.72000 -5.45300
H 1.35600 -1.75900 -5.96700
H 1.45200 -3.15700 -4.90200
H 2.71400 -0.52200 -4.79800
H 3.48700 -2.12100 -4.52900
H 2.49500 -1.30300 -3.24000
H 0.86700 -6.33300 -0.08400
H 0.40400 -5.64200 -1.68000
H -0.89100 -5.99900 -0.46300
H -1.28300 -3.58100 4.02800
H 0.69800 -4.47800 7.75500
H 0.83300 -2.61900 7.68000
H 2.00000 -3.75400 6.97600
Mg 7.89243 0.71432 0.60100
C 9.11109 -1.41165 3.22286
C 8.03439 3.29277 2.82947
C 6.40071 2.51742 -1.54167
C 6.78144 -2.16112 -1.02480
N 8.51056 0.80383 2.72283
C 9.01373 -0.05508 3.59658
C 9.51105 0.58910 4.91842
C 8.60661 1.91586 4.89452
C 8.39459 2.04001 3.38710
C 7.25003 1.73141 5.55407
C 11.04074 0.93585 4.87584
C 11.66013 1.28004 6.23218
H 13.03665 0.86840 6.49332
N 7.75342 2.68883 0.45760
C 7.85881 3.58688 1.45944
C 7.66135 4.90628 0.83945
C 7.26729 4.70279 -0.58112
C 7.10133 3.26335 -0.60504
C 7.92439 6.19385 1.56498
C 7.06008 5.64865 -1.72506
O 6.48764 5.27775 -2.81023
C 7.46261 7.04502 -1.50231
N 6.57049 0.26966 -0.94078
C 6.11153 1.23405 -1.75763
C 5.40002 0.64436 -2.95195
C 5.68829 -0.92750 -2.89081
C 6.47670 -0.98877 -1.56415
C 3.89141 0.88288 -3.01209
C 6.31580 -1.57759 -4.15426
C 7.72611 -1.06946 -4.34976
N 8.08453 -1.41627 0.90387
C 7.51853 -2.44399 0.11804
C 7.83156 -3.72451 0.78490
C 8.54383 -3.34847 1.93371
C 8.64864 -1.93238 1.99009
C 7.42406 -5.01445 0.34208
C 9.22170 -3.82693 3.11704
O 9.52825 -4.93538 3.55420
C 9.50979 -2.58799 4.07015
C 10.94200 -2.67267 4.52193
O 11.87098 -2.54978 3.70431
O 10.98087 -2.66673 5.86686
C 12.38112 -2.73809 6.36287
H 7.82467 4.12111 3.50678
H 5.96083 3.08632 -2.36407
H 6.55486 -3.10793 -1.51966
H 9.30189 0.01256 5.81153
H 9.15447 2.77425 5.27448
H 7.07101 0.70182 5.82618
H 6.52137 2.06242 4.82569
H 7.15105 2.40753 6.40811
H 11.17633 1.89445 4.35869
H 11.59821 0.14400 4.41452
H 11.00870 0.99466 7.06713
H 11.73792 2.36702 6.31234
H 8.04292 6.03097 2.64333
H 7.01600 6.80006 1.48008
H 8.76251 6.75194 1.14219
H 6.91651 7.44706 -0.65225
H 7.32065 7.54664 -2.46153
H 8.52428 7.06418 -1.23191
H 5.80297 1.03985 -3.87624
H 4.76539 -1.50524 -2.73488
H 3.56607 1.38795 -3.94114
H 3.60227 1.46034 -2.14406
H 3.27814 -0.01078 -2.90981
H 5.75533 -1.28881 -5.04680
H 6.33055 -2.66184 -4.12005
H 7.57591 -0.11813 -4.86889
H 8.30272 -1.76396 -4.95741
H 8.20170 -0.84822 -3.38720
H 8.28101 -5.66592 0.45044
H 7.07101 -4.98846 -0.68674
H 6.61477 -5.21662 1.04879
H 8.81240 -2.64896 4.90652
H 12.43847 -3.59990 7.03495
H 12.59458 -1.74412 6.79900
H 13.15579 -2.97846 5.64415

