%nproc=24
%mem=175gb
#p cam-b3lyp/Def2SVP td=(nstates=5)

TDDFT excited states in gaussian

0 1
Mg 10.50893 0.93896 0.80587
C 8.42269 2.79502 3.06013
C 12.68804 0.52820 3.39766
C 12.57244 -0.30782 -1.25687
C 8.77399 2.44159 -1.81668
N 10.45134 1.61988 2.90951
C 9.57932 2.26536 3.66931
C 9.92966 2.27846 5.18148
C 11.51596 2.05841 5.06272
C 11.56138 1.32458 3.72402
C 12.29472 3.35583 4.92287
C 9.24384 1.10409 5.96412
C 9.29018 1.23350 7.48821
H 8.14859 0.75417 8.26247
N 12.10760 -0.19552 1.11539
C 12.85915 -0.25455 2.23475
C 13.92889 -1.22357 1.95047
C 13.84394 -1.60847 0.51543
C 12.82885 -0.68291 0.05390
C 14.85095 -1.75201 3.01065
C 14.56697 -2.63059 -0.30840
O 14.50360 -2.63093 -1.58856
C 15.42594 -3.57353 0.42271
N 10.79831 1.20688 -1.23541
C 11.73149 0.50270 -1.89965
C 11.57172 0.65825 -3.39319
C 10.18243 1.42307 -3.59931
C 9.80615 1.66700 -2.12137
C 12.68546 1.42593 -4.10498
C 9.13651 0.74499 -4.52610
C 8.63131 -0.52928 -3.88863
N 8.77568 2.21492 0.61667
C 8.23566 2.74918 -0.57371
C 7.12998 3.64851 -0.18496
C 7.11824 3.59245 1.21690
C 8.15714 2.73553 1.67064
C 6.32992 4.41694 -1.07688
C 6.47002 4.07163 2.41644
O 5.47389 4.75423 2.65207
C 7.36639 3.67564 3.66787
C 6.46661 3.07240 4.71143
O 5.88641 1.99325 4.49836
O 6.60978 3.75284 5.86333
C 5.74551 3.18502 6.93218
H 13.54187 0.53461 4.07575
H 13.18670 -0.79738 -2.01614
H 8.12121 2.87114 -2.57960
H 9.72083 3.21309 5.68806
H 11.88696 1.41997 5.86029
H 11.64107 4.20761 4.80732
H 12.91526 3.23327 4.04483
H 12.98327 3.47477 5.76434
H 9.83981 0.19149 5.83484
H 8.22859 0.97406 5.64321
H 9.57435 2.24352 7.80767
H 10.09374 0.59680 7.86626
H 14.78164 -1.16350 3.93383
H 15.87408 -1.58373 2.65744
H 14.71207 -2.81928 3.19588
H 16.17916 -3.01980 0.97814
H 15.78664 -4.28127 -0.32621
H 14.81464 -4.10219 1.16260
H 11.51625 -0.30823 -3.87893
H 10.32642 2.41394 -4.05458
H 13.16629 0.84606 -4.91532
H 13.41729 1.72765 -3.36747
H 12.38607 2.37937 -4.53686
H 9.60010 0.45595 -5.47251
H 8.29147 1.38279 -4.76298
H 9.39876 -1.26108 -4.15803
H 7.66191 -0.80472 -4.29904
H 8.62400 -0.44649 -2.79559
H 5.30649 4.31924 -0.73990
H 6.44471 4.07968 -2.10491
H 6.76101 5.40930 -0.91987
H 7.85312 4.58479 4.02301
H 5.12353 4.00311 7.30841
H 6.43587 2.70535 7.65126
H 4.99159 2.46457 6.63720

