%nproc=24
%mem=175gb
#p cam-b3lyp/Def2SVP td=(nstates=5)

TDDFT excited states in gaussian

0 1
Mg 15.77303 1.42729 1.19553
C 15.15748 3.61633 3.97191
C 14.81423 3.98795 -0.84366
C 15.87199 -0.60576 -1.23847
C 15.57400 -1.23821 3.43187
N 15.09575 3.48822 1.62695
C 14.96027 4.22875 2.71672
C 14.67124 5.72911 2.44298
C 14.03037 5.58704 0.97739
C 14.71160 4.29291 0.53713
C 12.52888 5.35362 0.99716
C 15.97969 6.59471 2.41631
C 15.75127 8.10714 2.46236
H 16.71068 8.93415 3.18904
N 15.87464 1.76590 -0.75731
C 15.45993 2.86924 -1.41453
C 15.73632 2.61770 -2.83737
C 16.19621 1.20998 -2.98415
C 15.97406 0.71849 -1.63910
C 15.63361 3.68554 -3.88741
C 16.73347 0.43102 -4.14638
O 16.84630 -0.84514 -4.10720
C 17.03586 1.19616 -5.36482
N 15.51979 -0.63228 1.06752
C 15.66696 -1.27542 -0.10408
C 15.71151 -2.77144 0.09671
C 15.80681 -2.99002 1.67808
C 15.70655 -1.52064 2.14314
C 14.51837 -3.55234 -0.45373
C 16.98963 -3.85126 2.19949
C 18.29674 -3.12885 1.96503
N 15.61482 1.20356 3.33865
C 15.51957 -0.00335 4.06555
C 15.31475 0.35738 5.48342
C 15.28175 1.76001 5.47977
C 15.43365 2.23917 4.15054
C 15.13930 -0.55940 6.55806
C 15.14231 2.94401 6.29672
O 15.07310 3.16208 7.50560
C 14.92898 4.19557 5.34044
C 15.84954 5.29304 5.79938
O 17.08326 5.15690 5.72179
O 15.12589 6.39953 6.04911
C 15.99617 7.51936 6.49681
H 14.31748 4.64472 -1.55836
H 16.01085 -1.34897 -2.02703
H 15.60047 -2.00977 4.20431
H 13.95719 6.18477 3.11847
H 14.32720 6.41189 0.33484
H 12.15767 5.20344 2.00005
H 12.36055 4.47025 0.39519
H 12.01359 6.17066 0.48406
H 16.44798 6.50543 1.42764
H 16.64412 6.30536 3.20716
H 14.72540 8.36031 2.75637
H 15.84495 8.50327 1.44829
H 15.11389 4.57403 -3.50809
H 14.97430 3.29968 -4.67246
H 16.60035 3.93608 -4.32935
H 16.13549 1.70078 -5.70713
H 17.49256 0.48188 -6.05264
H 17.76014 1.97958 -5.11525
H 16.59038 -3.19835 -0.37065
H 14.91887 -3.50571 2.07237
H 14.80720 -4.33816 -1.17701
H 13.83172 -2.85076 -0.90852
H 13.89408 -4.03231 0.29799
H 17.04932 -4.78952 1.64248
H 16.90813 -4.10561 3.25099
H 18.53012 -3.37248 0.92423
H 19.06590 -3.50005 2.63930
H 18.16276 -2.04265 2.02724
H 15.73992 -0.19386 7.38034
H 15.42850 -1.56828 6.27122
H 14.06113 -0.47070 6.71605
H 13.87984 4.48559 5.40956
H 15.60643 7.86123 7.46061
H 15.99514 8.24925 5.66553
H 17.02217 7.28446 6.75487

