%nproc=24
%mem=175gb
#p cam-b3lyp/Def2SVP td=(nstates=5)

TDDFT excited states in gaussian

0 1
Mg 7.89055 0.70414 0.60399
C 8.10340 -2.22225 -1.46241
C 6.99782 -1.35628 3.17153
C 7.25767 3.29117 2.32857
C 7.67439 2.58489 -2.32206
N 7.62042 -1.48827 0.71636
C 7.78913 -2.50416 -0.11660
C 7.68993 -3.90371 0.54747
C 6.79246 -3.50405 1.81778
C 7.18203 -2.03224 1.93895
C 5.29898 -3.58218 1.54802
C 9.09091 -4.45810 0.98554
C 9.10755 -5.94245 1.35726
H 10.29254 -6.72941 1.02713
N 7.70526 0.92498 2.56752
C 7.35715 -0.02216 3.46364
C 7.34297 0.64853 4.77290
C 7.55027 2.10609 4.55554
C 7.49036 2.16804 3.10894
C 7.22551 -0.09947 6.06910
C 7.75424 3.25603 5.49483
O 7.67586 4.47208 5.09746
C 7.95581 2.91771 6.91130
N 7.30750 2.63270 0.09110
C 7.15097 3.58077 1.03163
C 7.00036 4.94793 0.40827
C 7.33172 4.75128 -1.14387
C 7.53857 3.22089 -1.16655
C 5.62527 5.59875 0.55635
C 8.44097 5.65609 -1.74683
C 9.78304 5.29197 -1.15383
N 8.07103 0.31310 -1.51322
C 7.91903 1.23984 -2.56779
C 8.01866 0.48141 -3.83163
C 8.20016 -0.84791 -3.42119
C 8.19254 -0.91614 -2.00175
C 7.89274 1.02595 -5.14073
C 8.38583 -2.21041 -3.86597
O 8.55971 -2.75201 -4.95692
C 8.20489 -3.17839 -2.61831
C 9.34734 -4.15682 -2.62000
O 10.51383 -3.76676 -2.43626
O 8.85505 -5.40903 -2.62062
C 9.95004 -6.41538 -2.61122
H 6.49179 -1.88262 3.98134
H 7.14366 4.22997 2.87551
H 7.71515 3.11236 -3.27746
H 7.18081 -4.65326 -0.04645
H 7.09680 -4.05332 2.70494
H 5.08729 -3.78026 0.50779
H 4.89670 -2.62082 1.83958
H 4.83405 -4.31715 2.21134
H 9.36295 -4.01884 1.95394
H 9.82936 -4.26610 0.23158
H 8.19843 -6.46008 1.02785
H 9.08480 -6.02771 2.44640
H 6.92068 -1.14064 5.90650
H 6.38992 0.34527 6.62033
H 8.12858 -0.02936 6.67919
H 7.09779 2.35690 7.27428
H 8.17285 3.86441 7.40984
H 8.82326 2.25318 6.99226
H 7.71007 5.64706 0.83328
H 6.45665 4.95952 -1.77689
H 5.66192 6.58964 1.04713
H 4.98597 4.92374 1.10970
H 5.07371 5.72947 -0.37311
H 8.25994 6.70179 -1.48626
H 8.50366 5.59993 -2.82846
H 9.79392 5.84495 -0.20980
H 10.59084 5.61275 -1.80850
H 9.82925 4.22404 -0.91085
H 8.67451 0.57901 -5.74037
H 7.97075 2.11110 -5.12914
H 6.88420 0.68961 -5.39569
H 7.24008 -3.67539 -2.72648
H 9.78875 -7.07107 -3.47246
H 9.91754 -6.88287 -1.60915
H 10.95703 -6.06214 -2.79999

