%nproc=24
%mem=175gb
#p cam-b3lyp/Def2SVP td=(nstates=5)

TDDFT excited states in gaussian

0 1
Mg 7.87493 0.71328 0.60450
C 5.57932 -2.02605 0.28006
C 5.50857 2.67632 -0.87247
C 10.03185 3.03612 0.46449
C 10.41561 -1.64198 0.98320
N 5.84529 0.26755 -0.15320
C 5.05499 -0.79528 -0.16683
C 3.59670 -0.50674 -0.61369
C 3.86690 0.82340 -1.47194
C 5.13313 1.31284 -0.77208
C 4.20352 0.54274 -2.92702
C 2.64443 -0.22321 0.60072
C 1.15158 -0.23898 0.26470
H 0.21914 -0.75747 1.26180
N 7.64222 2.66885 0.35918
C 6.61005 3.29632 -0.24265
C 6.92252 4.73263 -0.18322
C 8.30061 4.89096 0.35578
C 8.72878 3.50705 0.39541
C 5.92629 5.79752 -0.53950
C 9.10515 6.09052 0.75576
O 10.36592 6.01363 0.97343
C 8.39159 7.37537 0.79418
N 9.95113 0.70485 0.49647
C 10.64828 1.85458 0.50059
C 12.12357 1.59726 0.69478
C 12.24417 0.04584 1.06371
C 10.76127 -0.36317 0.92548
C 13.01640 1.90521 -0.50706
C 12.98913 -0.30876 2.37975
C 12.19143 0.17279 3.57020
N 7.98632 -1.43400 0.81618
C 9.15341 -2.21990 0.93600
C 8.72747 -3.63447 0.93755
C 7.33311 -3.57358 0.79423
C 6.92126 -2.21755 0.68907
C 9.59135 -4.76329 1.01242
C 6.11705 -4.34850 0.69733
O 5.83561 -5.54097 0.80937
C 4.94025 -3.38620 0.23310
C 3.75649 -3.63536 1.12706
O 3.81000 -3.35901 2.33841
O 2.69100 -3.95262 0.36914
C 1.48915 -4.19810 1.21004
H 4.93019 3.32671 -1.52924
H 10.80735 3.80271 0.53082
H 11.13800 -2.43291 1.19592
H 3.15436 -1.27089 -1.24154
H 3.06135 1.54278 -1.34969
H 4.32179 -0.51376 -3.11664
H 5.12948 1.06798 -3.12134
H 3.45530 0.99864 -3.58173
H 2.75702 0.82478 0.90696
H 2.84079 -0.90415 1.40595
H 0.95457 -0.68854 -0.71613
H 0.80848 0.79319 0.16023
H 5.05621 5.37691 -1.05858
H 6.40168 6.44337 -1.28566
H 5.63425 6.40546 0.31945
H 7.97174 7.58477 -0.18681
H 9.11024 8.09712 1.18725
H 7.54633 7.28559 1.48562
H 12.51382 2.18523 1.51642
H 12.79747 -0.51389 0.29533
H 13.82009 2.63064 -0.27924
H 12.39184 2.26990 -1.31171
H 13.49521 1.03906 -0.96064
H 13.95120 0.20781 2.42133
H 13.18804 -1.36943 2.49116
H 12.47720 1.22598 3.64904
H 12.46863 -0.37951 4.46583
H 11.11552 0.13778 3.36319
H 9.13819 -5.45652 1.70853
H 10.59222 -4.47764 1.32934
H 9.56959 -5.09496 -0.02911
H 4.72103 -3.61649 -0.81020
H 1.12091 -5.19717 0.95714
H 0.80984 -3.34684 1.01602
H 1.63639 -4.29146 2.27964

