%nproc=24
%mem=175gb
#p cam-b3lyp/Def2SVP td=(nstates=5)

TDDFT excited states in gaussian

0 1
Mg 0.00000 0.00000 0.00000
C -0.21700 -2.21800 2.80100
C -1.25500 2.44200 2.02600
C -0.24500 1.85000 -2.56400
C 0.14600 -2.82400 -2.03700
N -0.61700 -0.00900 2.12600
C -0.59400 -0.90800 3.10500
C -0.93600 -0.30900 4.50200
C -1.77300 0.96400 4.03200
C -1.15500 1.16800 2.66000
C -3.26300 0.68500 3.86300
C 0.34500 0.11000 5.29900
C 0.12400 0.39700 6.78700
H 1.16800 0.03300 7.73300
N -0.18500 1.96100 -0.15200
C -0.70300 2.80000 0.77700
C -0.62000 4.15600 0.19300
C -0.18700 4.01500 -1.22500
C -0.21400 2.58300 -1.38000
C -0.88700 5.40600 0.97400
C 0.18100 5.01300 -2.27700
O 0.30300 4.69000 -3.50800
C 0.31000 6.41400 -1.83700
N -0.26500 -0.41300 -2.02900
C -0.27900 0.56900 -2.93700
C -0.19600 0.02400 -4.33200
C 0.12400 -1.53300 -4.18000
C 0.08600 -1.63200 -2.63500
C -1.45100 0.20500 -5.19700
C 1.37300 -2.07000 -4.92300
C 2.62600 -1.49000 -4.30600
N 0.15000 -2.14400 0.30300
C 0.17300 -3.13600 -0.68800
C 0.17300 -4.43800 0.00400
C 0.13300 -4.11100 1.35800
C 0.08300 -2.69500 1.50200
C 0.14900 -5.71500 -0.62300
C 0.09600 -4.62900 2.71600
O 0.20800 -5.74700 3.22100
C -0.25500 -3.42800 3.70100
C 0.71700 -3.48200 4.84800
O 1.93100 -3.25500 4.66900
O 0.03800 -3.55600 6.00300
C 0.94300 -3.58300 7.18300
H -1.85900 3.22000 2.49700
H -0.21800 2.45300 -3.47400
H 0.27600 -3.74700 -2.60500
H -1.55400 -0.94900 5.13200
H -1.58500 1.83100 4.66500
H -3.48400 -0.37700 3.96900
H -3.51100 1.02700 2.85800
H -3.85200 1.30100 4.54300
H 0.66900 1.09600 4.96600
H 1.13000 -0.63900 5.18900
H -0.84400 0.02600 7.12500
H 0.06200 1.47700 6.92100
H -1.34400 5.18600 1.93800
H -1.65100 5.96300 0.43200
H 0.00700 6.02000 1.08400
H -0.63500 6.74400 -1.40500
H 0.66500 6.97000 -2.70400
H 1.04800 6.46600 -1.03600
H 0.60800 0.50100 -4.89100
H -0.69200 -2.15600 -4.54700
H -1.26700 0.74000 -6.12900
H -2.20400 0.71400 -4.59600
H -1.96700 -0.72000 -5.45300
H 1.35600 -1.75900 -5.96700
H 1.45200 -3.15700 -4.90200
H 2.71400 -0.52200 -4.79800
H 3.48700 -2.12100 -4.52900
H 2.49500 -1.30300 -3.24000
H 0.86700 -6.33300 -0.08400
H 0.40400 -5.64200 -1.68000
H -0.89100 -5.99900 -0.46300
H -1.28300 -3.58100 4.02800
H 0.69800 -4.47800 7.75500
H 0.83300 -2.61900 7.68000
H 2.00000 -3.75400 6.97600
Mg 8.94254 0.80913 0.68317
C 9.53491 -1.34748 3.48981
C 8.44844 3.33657 2.91980
C 7.97646 2.62482 -1.73290
C 8.35765 -2.05371 -1.21624
N 9.01097 0.86356 2.89328
C 9.30688 -0.00304 3.85025
C 9.44044 0.62174 5.26495
C 8.53075 1.92566 5.03883
C 8.69635 2.08030 3.52842
C 7.05902 1.69170 5.33649
C 10.92156 1.00756 5.61058
C 11.17377 1.33477 7.08403
H 12.45397 0.95159 7.67286
N 8.78408 2.78239 0.54289
C 8.61006 3.65871 1.55436
C 8.53320 4.98713 0.92701
C 8.51086 4.80770 -0.55016
C 8.39951 3.36554 -0.63887
C 8.56874 6.26325 1.71674
C 8.56602 5.77504 -1.69358
O 8.29267 5.41586 -2.89321
C 8.85828 7.17534 -1.35413
N 8.05926 0.36835 -1.14655
C 7.78884 1.34011 -2.03563
C 7.41457 0.76140 -3.37928
C 7.72585 -0.80377 -3.27471
C 8.16131 -0.87685 -1.79470
C 5.96176 0.96347 -3.80928
C 8.66696 -1.40772 -4.35278
C 10.06563 -0.85997 -4.18226
N 9.11748 -1.32260 0.98846
C 8.79578 -2.34516 0.06925
C 8.97171 -3.63295 0.77144
C 9.36447 -3.26666 2.06761
C 9.40924 -1.85013 2.17212
C 8.72612 -4.92179 0.21943
C 9.74109 -3.75603 3.37427
O 9.96266 -4.86655 3.85530
C 9.74580 -2.53330 4.38979
C 11.02268 -2.59286 5.18259
O 12.12157 -2.42735 4.62432
O 10.72590 -2.61795 6.49471
C 11.96045 -2.66604 7.32260
H 8.05211 4.14306 3.53735
H 7.73782 3.20195 -2.62925
H 8.28980 -2.99385 -1.76779
H 9.03336 0.01907 6.06798
H 8.94086 2.78821 5.55767
H 6.84910 0.65178 5.53808
H 6.52459 2.02162 4.45525
H 6.73056 2.34462 6.15021
H 11.15245 1.98129 5.15969
H 11.59979 0.24110 5.28940
H 10.34418 1.01340 7.72549
H 11.19640 2.42114 7.19931
H 8.42042 6.07778 2.78772
H 7.69210 6.84840 1.41846
H 9.46842 6.85204 1.52548
H 8.10620 7.54326 -0.66026
H 8.94411 7.69593 -2.30990
H 9.81837 7.21461 -0.82753
H 8.02248 1.18872 -4.16729
H 6.81101 -1.40796 -3.36331
H 5.86243 1.48221 -4.78145
H 5.44870 1.51271 -3.03105
H 5.36953 0.05257 -3.87803
H 8.33745 -1.11189 -5.35181
H 8.70543 -2.49177 -4.33421
H 10.02056 0.09938 -4.70636
H 10.79583 -1.52517 -4.63872
H 10.28020 -0.64987 -3.12799
H 9.54849 -5.55401 0.52686
H 8.63921 -4.88017 -0.86430
H 7.77306 -5.16089 0.69878
H 8.86460 -2.63157 5.02494
H 11.87493 -3.54189 7.97319
H 12.02877 -1.67770 7.81481
H 12.89631 -2.86980 6.81556

