%nproc=24
%mem=175gb
#p cam-b3lyp/Def2SVP td=(nstates=5)

TDDFT excited states in gaussian

0 1
Mg 13.14665 1.17863 0.99265
C 12.99777 3.08775 -2.04251
C 12.65910 -1.60840 -0.91244
C 12.82294 -0.47951 3.67839
C 12.48052 4.13174 2.71923
N 12.87790 0.90366 -1.18552
C 12.90122 1.69553 -2.24701
C 12.89711 0.94791 -3.60738
C 12.21912 -0.42555 -3.12491
C 12.63664 -0.40144 -1.65598
C 10.70105 -0.40284 -3.19041
C 14.34511 0.70962 -4.16283
C 14.40758 0.26399 -5.62545
H 15.51683 0.73543 -6.44994
N 13.28129 -0.77404 1.32053
C 13.07297 -1.76519 0.42863
C 13.27551 -3.02082 1.16791
C 13.45861 -2.69300 2.60795
C 13.16763 -1.27341 2.59420
C 13.36095 -4.35841 0.49190
C 13.82144 -3.52265 3.80220
O 13.69143 -3.07643 4.99670
C 14.24484 -4.90514 3.53588
N 12.50657 1.69733 2.90146
C 12.51193 0.79766 3.90071
C 12.27573 1.46341 5.23539
C 12.35158 3.03530 4.95083
C 12.53799 3.00626 3.41792
C 10.94834 1.13347 5.91772
C 13.35782 3.85692 5.80236
C 14.77432 3.46700 5.44615
N 12.98101 3.27259 0.48675
C 12.67010 4.33881 1.35888
C 12.55839 5.55850 0.53286
C 12.79122 5.10963 -0.77588
C 13.01112 3.70567 -0.76864
C 12.22879 6.85864 1.00942
C 12.89045 5.50249 -2.16315
O 12.88179 6.57562 -2.76484
C 12.90341 4.19045 -3.06024
C 14.02168 4.32082 -4.05773
O 15.20608 4.34781 -3.67948
O 13.52417 4.17358 -5.29917
C 14.59712 4.28389 -6.32310
H 12.28492 -2.51651 -1.38595
H 12.80695 -0.98498 4.64675
H 12.37211 5.10900 3.19451
H 12.29230 1.41048 -4.37810
H 12.65697 -1.28156 -3.63176
H 10.32316 0.57761 -3.43952
H 10.35972 -0.70147 -2.20788
H 10.34198 -1.17152 -3.88072
H 14.77324 -0.17707 -3.67782
H 14.95457 1.58141 -4.02435
H 13.45262 0.41468 -6.14341
H 14.55933 -0.81780 -5.65244
H 13.02437 -4.30437 -0.55079
H 12.62891 -5.01078 0.98015
H 14.35091 -4.81141 0.57802
H 13.45116 -5.43106 3.01059
H 14.54788 -5.30953 4.50362
H 15.10786 -4.88289 2.86111
H 13.05092 1.19660 5.94320
H 11.38813 3.53075 5.14090
H 11.07251 0.71031 6.93241
H 10.40006 0.44859 5.28457
H 10.25584 1.96853 6.00887
H 13.23066 3.62887 6.86348
H 13.24540 4.92987 5.68782
H 14.94183 2.56884 6.04810
H 15.46937 4.25912 5.71723
H 14.84913 3.17597 4.39194
H 12.89992 7.55000 0.51737
H 12.31765 6.91960 2.09209
H 11.18934 6.93007 0.67820
H 11.92921 4.11532 -3.54488
H 14.29352 5.07073 -7.02052
H 14.72174 3.26526 -6.73616
H 15.56392 4.65048 -5.99850

