%nproc=24
%mem=175gb
#p cam-b3lyp/Def2SVP td=(nstates=5)

TDDFT excited states in gaussian

0 1
Mg 7.87634 0.71545 0.60458
C 9.99897 1.78993 3.29140
C 5.92163 -0.79981 2.95356
C 6.24082 -0.62184 -1.76273
C 10.54464 1.31093 -1.55674
N 8.04247 0.58338 2.80622
C 8.85738 1.08294 3.72312
C 8.38172 0.87832 5.18648
C 7.44380 -0.40489 4.95725
C 7.07933 -0.18243 3.49084
C 8.19043 -1.72375 5.06906
C 7.55977 2.10184 5.72443
C 7.32888 2.10633 7.23719
H 7.32026 3.38845 7.93616
N 6.06877 -0.10379 0.59488
C 5.41757 -0.65062 1.64283
C 4.13278 -1.13153 1.11163
C 4.14765 -0.97192 -0.36791
C 5.52441 -0.57020 -0.57587
C 3.01299 -1.60292 1.99328
C 3.10008 -1.16317 -1.42253
O 3.39774 -1.19831 -2.66872
C 1.72881 -1.40138 -0.94888
N 8.38721 0.18884 -1.34068
C 7.47273 -0.32871 -2.17960
C 7.99406 -0.37074 -3.59623
C 9.36459 0.45312 -3.57428
C 9.44713 0.76681 -2.06426
C 8.24744 -1.76433 -4.17077
C 9.49555 1.62824 -4.58157
C 8.53088 2.73274 -4.21432
N 9.84450 1.59167 0.76782
C 10.80939 1.71823 -0.25543
C 12.03097 2.27171 0.36411
C 11.69694 2.40830 1.71993
C 10.36828 1.95193 1.93415
C 13.25918 2.53207 -0.30658
C 12.16983 2.82484 3.02054
O 13.18621 3.37741 3.43930
C 11.13489 2.32498 4.11846
C 10.84685 3.47573 5.04330
O 10.26145 4.49059 4.62618
O 11.11277 3.10173 6.30812
C 10.83208 4.20613 7.26382
H 5.36779 -1.49874 3.58097
H 5.68397 -0.97263 -2.63471
H 11.38691 1.61683 -2.18098
H 9.16970 0.64176 5.89139
H 6.55532 -0.36137 5.58181
H 9.25568 -1.57655 5.16764
H 7.96602 -2.26679 4.16033
H 7.77870 -2.32184 5.88704
H 6.52229 2.01714 5.37628
H 8.01345 3.02671 5.42540
H 7.97843 1.39046 7.75542
H 6.31765 1.74257 7.43496
H 3.35275 -1.76332 3.02393
H 2.72840 -2.60089 1.64267
H 2.13862 -0.95010 1.94895
H 1.71324 -2.28735 -0.31859
H 1.10915 -1.42452 -1.84741
H 1.42606 -0.55963 -0.31609
H 7.30411 0.11300 -4.27673
H 10.22808 -0.18611 -3.81010
H 7.69007 -1.95861 -5.10654
H 7.99098 -2.49631 -3.41647
H 9.29135 -1.99749 -4.37347
H 9.22126 1.29800 -5.58648
H 10.49858 2.03758 -4.63967
H 7.59179 2.40088 -4.66717
H 8.85766 3.68201 -4.63400
H 8.37665 2.77614 -3.12989
H 13.60707 3.49485 0.04346
H 13.13178 2.52333 -1.38707
H 13.85575 1.68532 0.04326
H 11.59246 1.48422 4.64127
H 11.75076 4.37687 7.83351
H 9.93811 3.88876 7.83290
H 10.65252 5.19216 6.85157

