%nproc=24
%mem=175gb
#p cam-b3lyp/Def2SVP td=(nstates=5)

TDDFT excited states in gaussian

0 1
Mg 0.00000 0.00000 0.00000
C -0.21700 -2.21800 2.80100
C -1.25500 2.44200 2.02600
C -0.24500 1.85000 -2.56400
C 0.14600 -2.82400 -2.03700
N -0.61700 -0.00900 2.12600
C -0.59400 -0.90800 3.10500
C -0.93600 -0.30900 4.50200
C -1.77300 0.96400 4.03200
C -1.15500 1.16800 2.66000
C -3.26300 0.68500 3.86300
C 0.34500 0.11000 5.29900
C 0.12400 0.39700 6.78700
H 1.16800 0.03300 7.73300
N -0.18500 1.96100 -0.15200
C -0.70300 2.80000 0.77700
C -0.62000 4.15600 0.19300
C -0.18700 4.01500 -1.22500
C -0.21400 2.58300 -1.38000
C -0.88700 5.40600 0.97400
C 0.18100 5.01300 -2.27700
O 0.30300 4.69000 -3.50800
C 0.31000 6.41400 -1.83700
N -0.26500 -0.41300 -2.02900
C -0.27900 0.56900 -2.93700
C -0.19600 0.02400 -4.33200
C 0.12400 -1.53300 -4.18000
C 0.08600 -1.63200 -2.63500
C -1.45100 0.20500 -5.19700
C 1.37300 -2.07000 -4.92300
C 2.62600 -1.49000 -4.30600
N 0.15000 -2.14400 0.30300
C 0.17300 -3.13600 -0.68800
C 0.17300 -4.43800 0.00400
C 0.13300 -4.11100 1.35800
C 0.08300 -2.69500 1.50200
C 0.14900 -5.71500 -0.62300
C 0.09600 -4.62900 2.71600
O 0.20800 -5.74700 3.22100
C -0.25500 -3.42800 3.70100
C 0.71700 -3.48200 4.84800
O 1.93100 -3.25500 4.66900
O 0.03800 -3.55600 6.00300
C 0.94300 -3.58300 7.18300
H -1.85900 3.22000 2.49700
H -0.21800 2.45300 -3.47400
H 0.27600 -3.74700 -2.60500
H -1.55400 -0.94900 5.13200
H -1.58500 1.83100 4.66500
H -3.48400 -0.37700 3.96900
H -3.51100 1.02700 2.85800
H -3.85200 1.30100 4.54300
H 0.66900 1.09600 4.96600
H 1.13000 -0.63900 5.18900
H -0.84400 0.02600 7.12500
H 0.06200 1.47700 6.92100
H -1.34400 5.18600 1.93800
H -1.65100 5.96300 0.43200
H 0.00700 6.02000 1.08400
H -0.63500 6.74400 -1.40500
H 0.66500 6.97000 -2.70400
H 1.04800 6.46600 -1.03600
H 0.60800 0.50100 -4.89100
H -0.69200 -2.15600 -4.54700
H -1.26700 0.74000 -6.12900
H -2.20400 0.71400 -4.59600
H -1.96700 -0.72000 -5.45300
H 1.35600 -1.75900 -5.96700
H 1.45200 -3.15700 -4.90200
H 2.71400 -0.52200 -4.79800
H 3.48700 -2.12100 -4.52900
H 2.49500 -1.30300 -3.24000
H 0.86700 -6.33300 -0.08400
H 0.40400 -5.64200 -1.68000
H -0.89100 -5.99900 -0.46300
H -1.28300 -3.58100 4.02800
H 0.69800 -4.47800 7.75500
H 0.83300 -2.61900 7.68000
H 2.00000 -3.75400 6.97600
Mg 15.77385 1.41309 1.20157
C 15.98597 -1.06933 -1.38139
C 14.95438 -1.10684 3.34936
C 15.13986 3.61976 3.39156
C 15.48044 3.80629 -1.31483
N 15.53363 -0.76541 0.90379
C 15.69994 -1.60396 -0.10789
C 15.63064 -3.10473 0.28257
C 14.75154 -2.96509 1.61919
C 15.12458 -1.53624 2.00893
C 13.25450 -3.01487 1.36284
C 17.04631 -3.70921 0.58669
C 17.08855 -5.23651 0.67231
H 18.27718 -5.92853 0.18166
N 15.62169 1.25822 3.17424
C 15.30205 0.15421 3.88154
C 15.30330 0.56673 5.29363
C 15.48810 2.04229 5.35109
C 15.40098 2.37388 3.94306
C 15.21904 -0.41318 6.42769
C 15.69462 2.99842 6.48659
O 15.59358 4.26607 6.32629
C 15.92631 2.40331 7.81085
N 15.15714 3.39416 1.06968
C 15.00582 4.14608 2.17405
C 14.82653 5.60343 1.82136
C 15.13193 5.70710 0.25498
C 15.35771 4.21169 -0.05834
C 13.44623 6.19293 2.11059
C 16.21842 6.72657 -0.18425
C 17.57560 6.27890 0.30872
N 15.92055 1.42960 -0.95395
C 15.73757 2.53539 -1.81291
C 15.82370 2.02953 -3.19823
C 16.02949 0.64983 -3.04800
C 16.04868 0.31608 -1.66679
C 15.66698 2.80819 -4.37943
C 16.22425 -0.60175 -3.74393
O 16.38502 -0.92597 -4.91984
C 16.07843 -1.78960 -2.69793
C 17.23296 -2.73203 -2.90139
O 18.39758 -2.36495 -2.66575
O 16.75666 -3.96949 -3.12984
C 17.86430 -4.94218 -3.32692
H 14.46994 -1.78388 4.05350
H 15.02398 4.43719 4.10701
H 15.49705 4.50441 -2.15449
H 15.12029 -3.73737 -0.43372
H 15.07898 -3.66631 2.38237
H 13.02636 -3.01737 0.30733
H 12.84546 -2.13189 1.83623
H 12.81111 -3.86863 1.88325
H 17.33041 -3.45540 1.61607
H 17.76836 -3.36731 -0.12911
H 16.18019 -5.69742 0.26562
H 17.08679 -5.52517 1.72620
H 14.92450 -1.40999 6.07694
H 14.38809 -0.09323 7.06567
H 16.13214 -0.44459 7.02595
H 15.08224 1.77075 8.07518
H 16.14041 3.24284 8.47509
H 16.80344 1.74927 7.75187
H 15.53497 6.22146 2.35918
H 14.24287 6.01661 -0.31388
H 13.47929 7.07445 2.77835
H 12.82575 5.41593 2.53700
H 12.87616 6.48713 1.23100
H 16.02894 7.70170 0.27112
H 16.26204 6.87556 -1.25798
H 17.59673 6.64482 1.33962
H 18.36718 6.72973 -0.28642
H 17.63978 5.18521 0.34577
H 16.44326 2.49431 -5.06453
H 15.73143 3.87295 -4.16518
H 14.65830 2.50975 -4.67737
H 15.11818 -2.27270 -2.88260
H 17.69562 -5.42691 -4.29350
H 17.85605 -5.59002 -2.43027
H 18.86311 -4.54382 -3.46154

