%nproc=24
%mem=175gb
#p cam-b3lyp/Def2SVP td=(nstates=5)

TDDFT excited states in gaussian

0 1
Mg 13.13954 1.18540 0.98782
C 15.53616 -1.25535 -0.09754
C 15.37253 3.58208 0.03687
C 11.24893 3.34360 2.34251
C 11.62919 -1.33465 2.86235
N 15.15986 1.05541 0.09693
C 15.94287 0.07537 -0.32822
C 17.19646 0.54783 -1.11234
C 17.31756 2.02852 -0.50261
C 15.85486 2.25916 -0.12844
C 18.15075 2.09036 0.76677
C 16.95396 0.58290 -2.66217
C 18.22011 0.73579 -3.50790
H 18.28612 0.04579 -4.79321
N 13.05018 3.15214 0.73778
C 14.04395 3.96571 0.32328
C 13.47904 5.32403 0.32506
C 12.12129 5.26659 0.93164
C 12.09521 3.89200 1.38983
C 14.18451 6.49950 -0.28649
C 11.03218 6.28445 1.08655
O 10.02790 6.08402 1.85732
C 11.22260 7.56072 0.38203
N 11.78268 1.08301 2.55969
C 11.05190 2.15492 2.91308
C 9.95447 1.77302 3.87754
C 9.94913 0.17414 3.91103
C 11.15611 -0.10234 2.98791
C 10.10242 2.31112 5.30054
C 8.60162 -0.53187 3.59728
C 8.22649 -0.30819 2.15000
N 13.37705 -0.95179 1.19771
C 12.65716 -1.80961 2.05793
C 13.25360 -3.15510 1.93003
C 14.30216 -2.98045 1.01432
C 14.36824 -1.61791 0.61608
C 12.84765 -4.31649 2.64591
C 15.37487 -3.63679 0.30213
O 15.74757 -4.80240 0.17489
C 16.30159 -2.52399 -0.35305
C 16.55459 -2.91356 -1.78369
O 15.62140 -2.94306 -2.60522
O 17.88189 -2.97502 -1.99551
C 18.18325 -3.34710 -3.40354
H 16.08608 4.40485 -0.01590
H 10.50327 4.02485 2.75888
H 11.15320 -2.19411 3.33926
H 18.09956 -0.01410 -0.90638
H 17.63488 2.74220 -1.25846
H 18.42677 1.10644 1.11585
H 17.53309 2.59243 1.49989
H 19.02184 2.73415 0.61492
H 16.43982 1.51688 -2.92310
H 16.40813 -0.28332 -2.98210
H 19.13024 0.54993 -2.92476
H 18.30772 1.78057 -3.81575
H 15.23405 6.26865 -0.50686
H 14.23332 7.27843 0.48212
H 13.66222 6.89668 -1.15949
H 12.14532 8.02594 0.72059
H 10.30006 8.12254 0.54062
H 11.34765 7.35500 -0.68692
H 8.99122 2.12034 3.52451
H 10.21813 -0.21349 4.90462
H 9.23456 2.91169 5.63251
H 11.01131 2.89580 5.35159
H 10.27108 1.55468 6.06510
H 7.79790 -0.09754 4.19692
H 8.61487 -1.59756 3.80006
H 7.74879 0.67596 2.16815
H 7.53478 -1.07648 1.81041
H 9.11978 -0.22944 1.51954
H 12.82824 -5.13045 1.93346
H 11.87644 -4.17486 3.11546
H 13.65345 -4.38363 3.38174
H 17.22319 -2.48106 0.22867
H 18.82653 -4.23182 -3.36953
H 18.60364 -2.43627 -3.86981
H 17.36261 -3.70565 -4.01382

