%nproc=24
%mem=175gb
#p cam-b3lyp/Def2SVP td=(nstates=5)

TDDFT excited states in gaussian

0 1
Mg 0.00000 0.00000 0.00000
C -0.21700 -2.21800 2.80100
C -1.25500 2.44200 2.02600
C -0.24500 1.85000 -2.56400
C 0.14600 -2.82400 -2.03700
N -0.61700 -0.00900 2.12600
C -0.59400 -0.90800 3.10500
C -0.93600 -0.30900 4.50200
C -1.77300 0.96400 4.03200
C -1.15500 1.16800 2.66000
C -3.26300 0.68500 3.86300
C 0.34500 0.11000 5.29900
C 0.12400 0.39700 6.78700
H 1.16800 0.03300 7.73300
N -0.18500 1.96100 -0.15200
C -0.70300 2.80000 0.77700
C -0.62000 4.15600 0.19300
C -0.18700 4.01500 -1.22500
C -0.21400 2.58300 -1.38000
C -0.88700 5.40600 0.97400
C 0.18100 5.01300 -2.27700
O 0.30300 4.69000 -3.50800
C 0.31000 6.41400 -1.83700
N -0.26500 -0.41300 -2.02900
C -0.27900 0.56900 -2.93700
C -0.19600 0.02400 -4.33200
C 0.12400 -1.53300 -4.18000
C 0.08600 -1.63200 -2.63500
C -1.45100 0.20500 -5.19700
C 1.37300 -2.07000 -4.92300
C 2.62600 -1.49000 -4.30600
N 0.15000 -2.14400 0.30300
C 0.17300 -3.13600 -0.68800
C 0.17300 -4.43800 0.00400
C 0.13300 -4.11100 1.35800
C 0.08300 -2.69500 1.50200
C 0.14900 -5.71500 -0.62300
C 0.09600 -4.62900 2.71600
O 0.20800 -5.74700 3.22100
C -0.25500 -3.42800 3.70100
C 0.71700 -3.48200 4.84800
O 1.93100 -3.25500 4.66900
O 0.03800 -3.55600 6.00300
C 0.94300 -3.58300 7.18300
H -1.85900 3.22000 2.49700
H -0.21800 2.45300 -3.47400
H 0.27600 -3.74700 -2.60500
H -1.55400 -0.94900 5.13200
H -1.58500 1.83100 4.66500
H -3.48400 -0.37700 3.96900
H -3.51100 1.02700 2.85800
H -3.85200 1.30100 4.54300
H 0.66900 1.09600 4.96600
H 1.13000 -0.63900 5.18900
H -0.84400 0.02600 7.12500
H 0.06200 1.47700 6.92100
H -1.34400 5.18600 1.93800
H -1.65100 5.96300 0.43200
H 0.00700 6.02000 1.08400
H -0.63500 6.74400 -1.40500
H 0.66500 6.97000 -2.70400
H 1.04800 6.46600 -1.03600
H 0.60800 0.50100 -4.89100
H -0.69200 -2.15600 -4.54700
H -1.26700 0.74000 -6.12900
H -2.20400 0.71400 -4.59600
H -1.96700 -0.72000 -5.45300
H 1.35600 -1.75900 -5.96700
H 1.45200 -3.15700 -4.90200
H 2.71400 -0.52200 -4.79800
H 3.48700 -2.12100 -4.52900
H 2.49500 -1.30300 -3.24000
H 0.86700 -6.33300 -0.08400
H 0.40400 -5.64200 -1.68000
H -0.89100 -5.99900 -0.46300
H -1.28300 -3.58100 4.02800
H 0.69800 -4.47800 7.75500
H 0.83300 -2.61900 7.68000
H 2.00000 -3.75400 6.97600
Mg 15.77420 1.41236 1.19777
C 15.91251 0.49576 -2.26919
C 15.13402 -1.86671 1.88512
C 15.20098 2.25694 4.20202
C 15.28715 4.70494 0.16461
N 15.57414 -0.36149 -0.10824
C 15.70799 -0.59950 -1.40431
C 15.69771 -2.10398 -1.78639
C 14.88731 -2.66817 -0.51998
C 15.24392 -1.58813 0.49933
C 13.38055 -2.65984 -0.71733
C 17.14244 -2.71162 -1.86097
C 17.22804 -4.08704 -2.52630
H 18.40629 -4.39904 -3.33058
N 15.73065 0.31874 2.85326
C 15.47712 -1.00334 2.94871
C 15.54259 -1.32302 4.38317
C 15.69252 -0.05096 5.14087
C 15.52259 0.91365 4.07282
C 15.54346 -2.73096 4.90385
C 15.93441 0.24809 6.58941
O 15.79277 1.42952 7.06583
C 16.25095 -0.89975 7.45182
N 15.10110 3.17955 2.06166
C 14.98933 3.29782 3.39637
C 14.75456 4.73421 3.79895
C 14.97390 5.59454 2.46880
C 15.22080 4.44810 1.46376
C 13.37693 5.04443 4.38400
C 16.00928 6.75016 2.54083
C 17.40163 6.18588 2.70926
N 15.80615 2.47280 -0.68439
C 15.54986 3.84548 -0.89450
C 15.57541 4.07478 -2.35367
C 15.82396 2.80518 -2.89666
C 15.92471 1.84836 -1.85078
C 15.33661 5.31785 -3.00473
C 16.01344 2.05500 -4.11732
O 16.11995 2.34585 -5.30804
C 15.95349 0.50463 -3.77214
C 17.11927 -0.16651 -4.44522
O 18.28500 0.09682 -4.10119
O 16.66322 -1.16181 -5.22738
C 17.78330 -1.86474 -5.90792
H 14.70493 -2.82162 2.18993
H 15.10234 2.62166 5.22707
H 15.24151 5.72121 -0.23261
H 15.16645 -2.33664 -2.70149
H 15.27244 -3.63382 -0.20286
H 13.09701 -2.16419 -1.63389
H 12.97478 -2.13512 0.13770
H 12.98723 -3.67883 -0.66009
H 17.47406 -2.97214 -0.84761
H 17.81665 -2.03291 -2.34617
H 16.31148 -4.33774 -3.07403
H 17.28941 -4.84764 -1.74417
H 15.25627 -3.44807 4.12495
H 14.73955 -2.79835 5.64484
H 16.48745 -3.00308 5.38082
H 15.43844 -1.62099 7.40574
H 16.47845 -0.47521 8.43156
H 17.14011 -1.40153 7.05404
H 15.47449 5.04958 4.54416
H 14.04838 6.09694 2.15125
H 13.42281 5.49536 5.39328
H 12.79989 4.12943 4.40220
H 12.75380 5.69849 3.77645
H 15.81939 7.37470 3.41721
H 15.99221 7.40014 1.67237
H 17.46795 6.01012 3.78713
H 18.14885 6.90506 2.37991
H 17.49552 5.21428 2.21045
H 16.08330 5.41064 -3.78213
H 15.38516 6.14918 -2.30452
H 14.32151 5.15207 -3.37534
H 14.99743 0.12502 -4.13466
H 17.57611 -1.83099 -6.98199
H 17.83903 -2.86409 -5.43682
H 18.76312 -1.40352 -5.86694

