%nproc=24
%mem=175gb
#p cam-b3lyp/Def2SVP td=(nstates=5)

TDDFT excited states in gaussian

0 1
Mg 0.00000 0.00000 0.00000
C -0.21700 -2.21800 2.80100
C -1.25500 2.44200 2.02600
C -0.24500 1.85000 -2.56400
C 0.14600 -2.82400 -2.03700
N -0.61700 -0.00900 2.12600
C -0.59400 -0.90800 3.10500
C -0.93600 -0.30900 4.50200
C -1.77300 0.96400 4.03200
C -1.15500 1.16800 2.66000
C -3.26300 0.68500 3.86300
C 0.34500 0.11000 5.29900
C 0.12400 0.39700 6.78700
H 1.16800 0.03300 7.73300
N -0.18500 1.96100 -0.15200
C -0.70300 2.80000 0.77700
C -0.62000 4.15600 0.19300
C -0.18700 4.01500 -1.22500
C -0.21400 2.58300 -1.38000
C -0.88700 5.40600 0.97400
C 0.18100 5.01300 -2.27700
O 0.30300 4.69000 -3.50800
C 0.31000 6.41400 -1.83700
N -0.26500 -0.41300 -2.02900
C -0.27900 0.56900 -2.93700
C -0.19600 0.02400 -4.33200
C 0.12400 -1.53300 -4.18000
C 0.08600 -1.63200 -2.63500
C -1.45100 0.20500 -5.19700
C 1.37300 -2.07000 -4.92300
C 2.62600 -1.49000 -4.30600
N 0.15000 -2.14400 0.30300
C 0.17300 -3.13600 -0.68800
C 0.17300 -4.43800 0.00400
C 0.13300 -4.11100 1.35800
C 0.08300 -2.69500 1.50200
C 0.14900 -5.71500 -0.62300
C 0.09600 -4.62900 2.71600
O 0.20800 -5.74700 3.22100
C -0.25500 -3.42800 3.70100
C 0.71700 -3.48200 4.84800
O 1.93100 -3.25500 4.66900
O 0.03800 -3.55600 6.00300
C 0.94300 -3.58300 7.18300
H -1.85900 3.22000 2.49700
H -0.21800 2.45300 -3.47400
H 0.27600 -3.74700 -2.60500
H -1.55400 -0.94900 5.13200
H -1.58500 1.83100 4.66500
H -3.48400 -0.37700 3.96900
H -3.51100 1.02700 2.85800
H -3.85200 1.30100 4.54300
H 0.66900 1.09600 4.96600
H 1.13000 -0.63900 5.18900
H -0.84400 0.02600 7.12500
H 0.06200 1.47700 6.92100
H -1.34400 5.18600 1.93800
H -1.65100 5.96300 0.43200
H 0.00700 6.02000 1.08400
H -0.63500 6.74400 -1.40500
H 0.66500 6.97000 -2.70400
H 1.04800 6.46600 -1.03600
H 0.60800 0.50100 -4.89100
H -0.69200 -2.15600 -4.54700
H -1.26700 0.74000 -6.12900
H -2.20400 0.71400 -4.59600
H -1.96700 -0.72000 -5.45300
H 1.35600 -1.75900 -5.96700
H 1.45200 -3.15700 -4.90200
H 2.71400 -0.52200 -4.79800
H 3.48700 -2.12100 -4.52900
H 2.49500 -1.30300 -3.24000
H 0.86700 -6.33300 -0.08400
H 0.40400 -5.64200 -1.68000
H -0.89100 -5.99900 -0.46300
H -1.28300 -3.58100 4.02800
H 0.69800 -4.47800 7.75500
H 0.83300 -2.61900 7.68000
H 2.00000 -3.75400 6.97600
Mg 31.52638 2.84100 2.38700
C 32.38964 0.15022 0.17486
C 32.62265 4.98228 -0.03121
C 31.19989 5.20807 4.47454
C 31.58146 0.53000 4.99505
N 32.37401 2.49096 0.37422
C 32.59784 1.42835 -0.38413
C 32.99474 1.75547 -1.84872
C 33.58037 3.23239 -1.61500
C 32.78821 3.61468 -0.36639
C 35.05910 3.24502 -1.26494
C 31.75736 1.77421 -2.81337
C 32.10396 1.78059 -4.30387
H 31.23301 1.05460 -5.22411
N 31.39551 4.79995 2.09725
C 31.87579 5.50138 1.04911
C 31.54002 6.90807 1.31861
C 30.96801 6.99946 2.68944
C 31.18970 5.64628 3.15832
C 31.69535 7.99270 0.29251
C 30.33870 8.12270 3.45657
O 30.12812 8.04146 4.71827
C 30.06197 9.35565 2.70507
N 31.61487 2.91242 4.46291
C 31.38462 4.05947 5.12562
C 31.22960 3.81180 6.60718
C 31.16293 2.22251 6.77242
C 31.39047 1.80552 5.30282
C 32.34212 4.36927 7.49483
C 29.93213 1.64398 7.52281
C 28.67899 1.86598 6.70687
N 31.72805 0.69693 2.56128
C 31.74991 -0.06387 3.75073
C 32.02271 -1.46412 3.36695
C 32.16460 -1.41660 1.97192
C 32.01241 -0.07777 1.52040
C 32.15703 -2.56138 4.26367
C 32.41906 -2.19291 0.77974
O 32.53963 -3.39230 0.53341
C 32.70162 -1.19342 -0.42340
C 31.88274 -1.64258 -1.60247
O 30.64046 -1.60171 -1.56157
O 32.69713 -1.83912 -2.65533
C 31.92978 -2.27503 -3.85241
H 33.14829 5.72961 -0.62625
H 30.98109 5.96954 5.22671
H 31.51720 -0.26617 5.73981
H 33.76114 1.11332 -2.26591
H 33.33031 3.89189 -2.44197
H 35.44608 2.24812 -1.11469
H 35.14088 3.82385 -0.35427
H 35.62147 3.79632 -2.02398
H 31.25542 2.74701 -2.73303
H 31.09537 0.95765 -2.59981
H 33.15442 1.52160 -4.48390
H 32.01237 2.80351 -4.67706
H 32.29326 7.65462 -0.56282
H 32.29989 8.78263 0.75123
H 30.73877 8.41650 -0.02054
H 30.98867 9.73686 2.28275
H 29.53157 10.00898 3.40056
H 29.40827 9.11123 1.86035
H 30.30716 4.24254 6.97684
H 32.01900 1.83611 7.34486
H 31.97243 5.06026 8.27581
H 33.06795 4.86328 6.86263
H 32.94847 3.61988 8.00076
H 29.78370 2.17019 8.46898
H 30.02369 0.58768 7.75270
H 28.39765 2.89231 6.96098
H 27.90293 1.16062 6.99710
H 28.89879 1.84065 5.63323
H 31.61048 -3.38760 3.82876
H 31.78213 -2.31332 5.25447
H 33.24291 -2.68812 4.25552
H 33.77168 -1.22597 -0.63192
H 32.37238 -3.21730 -4.18992
H 31.96376 -1.42203 -4.55596
H 30.89643 -2.56710 -3.70633

