%nproc=24
%mem=175gb
#p cam-b3lyp/Def2SVP td=(nstates=5)

TDDFT excited states in gaussian

0 1
Mg 15.75671 1.42182 1.19381
C 15.17037 -1.38173 -0.96846
C 15.48140 3.41382 -1.56132
C 16.71314 3.86063 2.98402
C 17.09581 -0.81738 3.50433
N 15.37346 0.95849 -0.93474
C 15.10519 -0.13717 -1.62894
C 14.66827 0.12167 -3.09579
C 15.35595 1.55819 -3.30162
C 15.37705 2.02946 -1.84899
C 16.79004 1.47345 -3.79714
C 13.10890 0.20403 -3.24931
C 12.60073 0.14600 -4.69159
H 11.33910 -0.53940 -4.95799
N 15.58227 3.37676 0.89996
C 15.45667 4.01378 -0.28313
C 15.38420 5.44765 0.03769
C 15.64280 5.61625 1.49352
C 16.01819 4.26348 1.85296
C 15.01462 6.49076 -0.97659
C 15.57709 6.80182 2.40801
O 16.07346 6.76935 3.58928
C 14.99796 8.03120 1.84702
N 16.94934 1.54154 2.89252
C 17.16479 2.71932 3.50435
C 17.81826 2.52272 4.85147
C 17.77670 0.94730 5.12332
C 17.15972 0.47629 3.78807
C 19.25800 3.02183 4.97162
C 17.11597 0.47903 6.44877
C 15.63267 0.76913 6.41666
N 15.92014 -0.72585 1.36377
C 16.54179 -1.45453 2.40139
C 16.50016 -2.88046 2.01745
C 15.87275 -2.88019 0.76252
C 15.56456 -1.54628 0.38147
C 17.04364 -3.96046 2.76869
C 15.41067 -3.70408 -0.33128
O 15.32399 -4.91512 -0.53025
C 15.04920 -2.75971 -1.55762
C 13.70535 -3.17969 -2.08695
O 12.68286 -3.04832 -1.39135
O 13.81675 -3.46219 -3.39774
C 12.50726 -3.87316 -3.97059
H 15.63947 4.10533 -2.38940
H 16.96829 4.65551 3.68868
H 17.40448 -1.58687 4.21516
H 15.05981 -0.58487 -3.81780
H 14.73201 2.21191 -3.90553
H 17.15017 0.45557 -3.81639
H 17.37496 2.06875 -3.10828
H 16.88184 1.96252 -4.77116
H 12.77464 1.21226 -2.97276
H 12.62789 -0.55676 -2.66583
H 13.37676 -0.19270 -5.38873
H 12.37090 1.16263 -5.01970
H 15.04315 6.08796 -1.99656
H 15.80700 7.24691 -0.96092
H 14.06056 6.97398 -0.75540
H 15.56952 8.33332 0.97265
H 14.95517 8.73922 2.67692
H 13.98234 7.81229 1.49887
H 17.25990 3.02846 5.62964
H 18.78713 0.51547 5.17225
H 19.39824 3.75807 5.78546
H 19.55292 3.44535 4.02072
H 20.00544 2.24432 5.12000
H 17.52359 1.03941 7.29375
H 17.26727 -0.57467 6.65810
H 15.58003 1.81943 6.71862
H 15.10194 0.12946 7.11894
H 15.24007 0.69964 5.39554
H 16.31119 -4.75634 2.74433
H 17.27150 -3.65990 3.78924
H 17.94798 -4.16531 2.18949
H 15.83702 -2.87480 -2.30306
H 12.65485 -4.85348 -4.43414
H 12.19786 -3.04373 -4.63396
H 11.70169 -4.08602 -3.27762

