%nproc=24
%mem=175gb
#p cam-b3lyp/Def2SVP td=(nstates=5)

TDDFT excited states in gaussian

0 1
Mg 8.93457 0.80684 0.66838
C 11.24158 -1.65623 -0.55230
C 11.11963 3.18285 -0.43375
C 7.14757 2.98508 2.12760
C 7.52792 -1.69316 2.64753
N 10.89398 0.65808 -0.34694
C 11.64203 -0.32959 -0.81518
C 12.84705 0.13008 -1.67902
C 13.01630 1.61284 -1.08602
C 11.58161 1.85573 -0.62196
C 13.92802 1.67497 0.12817
C 12.50787 0.15926 -3.21072
C 13.71936 0.29897 -4.13511
H 13.69977 -0.39778 -5.41833
N 8.84305 2.77292 0.41395
C 9.81432 3.57733 -0.06650
C 9.25989 4.93964 -0.03650
C 7.94259 4.89485 0.65446
C 7.93601 3.52275 1.12073
C 9.93351 6.10704 -0.69743
C 6.87232 5.92119 0.87203
O 5.91713 5.73171 1.70543
C 7.02676 7.19261 0.15013
N 7.67852 0.72183 2.32291
C 6.97871 1.80065 2.71576
C 5.94148 1.43132 3.74928
C 5.92738 -0.16730 3.79159
C 7.07205 -0.45691 2.79597
C 6.18224 1.97532 5.15729
C 4.55804 -0.86522 3.56689
C 4.09423 -0.64599 2.14485
N 9.17026 -1.33093 0.87437
C 8.50004 -2.17938 1.78268
C 9.07809 -3.52969 1.62476
C 10.06819 -3.36702 0.64408
C 10.11838 -2.00695 0.23520
C 8.71005 -4.68463 2.37093
C 11.08953 -4.03447 -0.13056
O 11.44556 -5.20331 -0.27473
C 11.98079 -2.93153 -0.84860
C 12.14072 -3.32991 -2.29021
O 11.15756 -3.35679 -3.05132
O 13.45163 -3.40187 -2.58465
C 13.66136 -3.78299 -4.00682
H 11.83403 4.00025 -0.53563
H 6.43420 3.67366 2.58634
H 7.07700 -2.54685 3.15799
H 13.75746 -0.43726 -1.52719
H 13.29034 2.32052 -1.86412
H 14.21874 0.69084 0.46448
H 13.36109 2.18502 0.89595
H 14.79221 2.31179 -0.08154
H 11.98470 1.09559 -3.44383
H 11.93712 -0.70461 -3.49109
H 14.66307 0.10950 -3.60931
H 13.79456 1.34158 -4.45344
H 10.96554 5.86764 -0.98206
H 10.03583 6.88936 0.06241
H 9.36010 6.50364 -1.53802
H 7.97208 7.65289 0.42757
H 6.11985 7.76176 0.36335
H 7.08298 6.98075 -0.92345
H 4.96034 1.78375 3.45561
H 6.25566 -0.55196 4.76838
H 5.34106 2.58368 5.53990
H 7.09650 2.55375 5.14802
H 6.39347 1.22146 5.91378
H 3.79658 -0.42224 4.21349
H 4.57676 -1.92997 3.77413
H 3.62532 0.34162 2.18770
H 3.37733 -1.41098 1.85349
H 4.94665 -0.57669 1.45911
H 8.64036 -5.50192 1.66546
H 7.77126 -4.53378 2.89979
H 9.56003 -4.75389 3.05504
H 12.93739 -2.89232 -0.32616
H 14.29948 -4.67209 -4.00855
H 14.05781 -2.87748 -4.50343
H 12.80157 -4.13867 -4.56242

