%nproc=24
%mem=175gb
#p cam-b3lyp/Def2SVP td=(nstates=5)

TDDFT excited states in gaussian

0 1
Mg 10.51838 0.94944 0.79169
C 9.99011 4.49906 0.80653
C 9.88343 1.01940 -2.55892
C 10.53263 -2.22329 0.82345
C 9.98355 0.99534 4.23517
N 10.01481 2.60611 -0.58458
C 9.90221 3.92146 -0.47725
C 9.76313 4.66771 -1.83126
C 9.17366 3.46085 -2.71153
C 9.75158 2.28301 -1.92963
C 7.65761 3.36693 -2.66544
C 11.14516 5.16175 -2.38617
C 11.05416 6.16138 -3.54126
H 12.05395 7.22254 -3.62380
N 10.73187 -0.34881 -0.69409
C 10.44747 -0.14739 -1.99786
C 10.75884 -1.41416 -2.67793
C 11.09392 -2.43131 -1.64457
C 10.77188 -1.69681 -0.43755
C 10.79801 -1.54704 -4.17267
C 11.60578 -3.83738 -1.72920
O 11.59981 -4.61844 -0.71297
C 12.02737 -4.30267 -3.05859
N 10.08360 -0.44778 2.26854
C 10.22014 -1.76501 2.03574
C 10.11941 -2.55862 3.31653
C 10.12830 -1.47666 4.49418
C 10.14338 -0.18358 3.64972
C 8.88392 -3.44827 3.45245
C 11.20471 -1.64951 5.60059
C 12.58099 -1.40682 5.02410
N 10.25113 2.46908 2.30408
C 10.01578 2.26906 3.68201
C 9.78580 3.59931 4.28199
C 9.88126 4.48591 3.19880
C 10.13162 3.75765 2.00446
C 9.48266 3.85408 5.64922
C 9.81662 5.87133 2.79243
O 9.71726 6.94610 3.38296
C 9.75860 5.93019 1.20511
C 10.75563 6.95665 0.74162
O 11.97391 6.77863 0.91689
O 10.12631 7.86937 -0.02079
C 11.07582 8.90258 -0.51346
H 9.47901 0.89558 -3.56390
H 10.63579 -3.30750 0.90908
H 9.90717 1.10320 5.31924
H 9.06614 5.49711 -1.82332
H 9.57116 3.47886 -3.72298
H 7.23273 4.05689 -1.95160
H 7.43455 2.34613 -2.38391
H 7.24097 3.50101 -3.66782
H 11.64417 4.32858 -2.89761
H 11.74681 5.57291 -1.59903
H 10.04434 6.57554 -3.64936
H 11.22585 5.62573 -4.47807
H 10.34627 -0.67746 -4.66579
H 10.13953 -2.38159 -4.43686
H 11.80119 -1.75497 -4.55091
H 11.19194 -4.22452 -3.75026
H 12.44519 -5.29884 -2.90060
H 12.80915 -3.63203 -3.43230
H 10.97434 -3.21312 3.43418
H 9.18129 -1.47558 5.05366
H 9.12968 -4.51285 3.62667
H 8.28381 -3.33782 2.55903
H 8.18758 -3.15494 4.23621
H 11.20161 -2.67618 5.97488
H 11.05652 -0.99540 6.45334
H 12.83434 -2.37204 4.57548
H 13.28421 -1.14037 5.81055
H 12.54432 -0.66715 4.21589
H 10.07933 4.70606 5.94690
H 9.69019 2.98567 6.27098
H 8.41146 4.06020 5.57636
H 8.73838 6.19439 0.92417
H 10.67908 9.87452 -0.20421
H 11.17616 8.72217 -1.60026
H 12.06440 8.92691 -0.07012

