%nproc=24
%mem=175gb
#p cam-b3lyp/Def2SVP td=(nstates=5)

TDDFT excited states in gaussian

0 1
Mg 15.77280 1.42114 1.20584
C 15.73353 -1.79372 2.80027
C 14.55213 2.71367 4.11684
C 15.37003 4.18210 -0.30489
C 15.88631 -0.25034 -1.85014
N 15.25168 0.48056 3.13871
C 15.33672 -0.73896 3.64849
C 15.05351 -0.82019 5.17255
C 14.15794 0.50442 5.32164
C 14.70678 1.30458 4.14215
C 12.67699 0.25941 5.08479
C 16.36433 -0.72682 6.02990
C 16.19798 -1.10770 7.50266
H 17.29817 -1.79612 8.17209
N 15.53677 3.25587 1.92459
C 15.04862 3.59906 3.13505
C 15.05916 5.06970 3.17089
C 15.43872 5.56910 1.82136
C 15.44307 4.32828 1.07273
C 14.80685 5.85490 4.42517
C 15.73469 6.93862 1.28936
O 15.81033 7.17033 0.03102
C 15.84083 8.01848 2.28138
N 15.43273 1.90072 -0.78833
C 15.34786 3.18222 -1.18641
C 15.37780 3.28871 -2.69245
C 15.74543 1.82424 -3.21947
C 15.77819 1.07103 -1.87151
C 14.08060 3.75598 -3.35222
C 16.97291 1.70360 -4.16362
C 18.24072 2.02497 -3.40549
N 15.99079 -0.62968 0.56187
C 15.98636 -1.11204 -0.76530
C 16.04893 -2.58624 -0.69295
C 16.06231 -2.86245 0.68256
C 15.99127 -1.64719 1.41577
C 16.03705 -3.47494 -1.80479
C 16.10965 -3.90626 1.68102
O 16.26372 -5.12664 1.65529
C 15.77130 -3.26729 3.09652
C 16.79465 -3.75743 4.08396
O 17.98971 -3.43298 3.96927
O 16.16399 -4.34497 5.11713
C 17.13662 -4.83773 6.12856
H 13.95828 3.18460 4.90071
H 15.34179 5.11240 -0.87692
H 16.02409 -0.83956 -2.75926
H 14.48642 -1.68938 5.48351
H 14.36298 1.01649 6.25818
H 12.48522 -0.74514 4.73804
H 12.37514 0.98166 4.33760
H 12.10605 0.50137 5.98580
H 16.64617 0.32832 6.13938
H 17.14882 -1.31254 5.59156
H 15.24969 -1.62603 7.68979
H 16.12296 -0.19057 8.09193
H 14.39258 5.22186 5.21956
H 14.00606 6.56774 4.20053
H 15.68739 6.40682 4.76090
H 14.91118 8.08715 2.84129
H 16.14404 8.90350 1.71865
H 16.62350 7.75597 3.00189
H 16.14495 3.98147 -3.01598
H 14.92514 1.38425 -3.80545
H 14.21004 4.65879 -3.97852
H 13.34767 3.93328 -2.57639
H 13.58434 3.01214 -3.97322
H 16.90149 2.43445 -4.97289
H 17.07126 0.72491 -4.62130
H 18.27713 3.11801 -3.43764
H 19.10477 1.58653 -3.90071
H 18.15600 1.72878 -2.35348
H 16.78607 -4.23032 -1.60760
H 16.23706 -2.94923 -2.73613
H 15.00769 -3.83950 -1.75209
H 14.76136 -3.58024 3.36423
H 16.93599 -5.90399 6.27181
H 17.01201 -4.17906 7.00855
H 18.18380 -4.85511 5.85006

