%nproc=24
%mem=175gb
#p cam-b3lyp/Def2SVP td=(nstates=5)

TDDFT excited states in gaussian

0 1
Mg 15.76878 1.42424 1.20676
C 14.49787 -0.93044 3.59828
C 13.63930 3.72019 2.55899
C 16.53587 3.38617 -1.16596
C 16.91853 -1.29222 -0.64921
N 14.30761 1.29234 2.86201
C 13.95528 0.36392 3.73850
C 13.02735 0.87122 4.87479
C 12.39371 2.13905 4.11982
C 13.52758 2.43143 3.13926
C 11.14605 1.80178 3.32048
C 13.82875 1.30484 6.15219
C 12.97602 1.51741 7.40495
H 13.54127 1.15434 8.70153
N 15.55618 3.39091 1.04684
C 14.65514 4.16656 1.68540
C 14.89666 5.53789 1.21073
C 15.90424 5.48499 0.11679
C 16.02507 4.05188 -0.06121
C 14.25956 6.74157 1.84215
C 16.62843 6.54846 -0.65181
O 17.28244 6.27944 -1.72080
C 16.47217 7.92811 -0.16845
N 16.41745 1.09540 -0.74092
C 16.73174 2.12399 -1.54786
C 17.43212 1.64351 -2.79646
C 17.73996 0.09411 -2.54714
C 17.05490 -0.08229 -1.17420
C 16.65117 1.80352 -4.10064
C 19.21626 -0.36371 -2.70083
C 20.06127 0.24162 -1.60314
N 15.89644 -0.71336 1.49388
C 16.38930 -1.66902 0.57852
C 16.16470 -3.00104 1.17662
C 15.53088 -2.72682 2.39791
C 15.35349 -1.32414 2.54108
C 16.48871 -4.24905 0.57361
C 14.96197 -3.30564 3.59374
O 14.90377 -4.43986 4.06691
C 14.15392 -2.17611 4.36679
C 14.54614 -2.23492 5.81773
O 15.70751 -1.96338 6.17002
O 13.43948 -2.38843 6.56746
C 13.77596 -2.44112 8.01516
H 12.85213 4.44827 2.75683
H 16.91681 4.02448 -1.96654
H 17.33705 -2.18383 -1.12097
H 12.24399 0.18087 5.16384
H 12.25339 2.97462 4.80062
H 10.95824 0.73863 3.29627
H 11.32629 2.17698 2.32159
H 10.28953 2.36388 3.70357
H 14.20808 2.32466 6.00784
H 14.61466 0.60627 6.36427
H 11.96864 1.09813 7.29388
H 12.80756 2.58953 7.53225
H 13.44058 6.45716 2.51429
H 13.76943 7.30229 1.03889
H 14.98495 7.39201 2.33550
H 15.41783 8.19424 -0.17048
H 17.13452 8.53268 -0.79107
H 16.80619 7.97349 0.87414
H 18.36811 2.16889 -2.94131
H 17.19571 -0.54845 -3.25477
H 17.19054 2.39771 -4.86227
H 15.69503 2.25560 -3.87269
H 16.35749 0.87143 -4.58039
H 19.62875 -0.00132 -3.64565
H 19.33766 -1.44173 -2.68884
H 20.29166 1.23862 -1.99044
H 20.96712 -0.34181 -1.45116
H 19.47824 0.37165 -0.68400
H 16.93785 -4.86029 1.34507
H 17.15980 -4.11927 -0.27289
H 15.49411 -4.57920 0.26210
H 13.09155 -2.37567 4.22148
H 13.35649 -3.37291 8.40696
H 13.39349 -1.49644 8.44534
H 14.82030 -2.55010 8.28334

