%nproc=24
%mem=175gb
#p cam-b3lyp/Def2SVP td=(nstates=5)

TDDFT excited states in gaussian

0 1
Mg 10.50468 0.94846 0.79011
C 11.36793 -1.74232 -1.42202
C 11.60094 3.08975 -1.62809
C 10.17818 3.31553 2.87765
C 10.55975 -1.36254 3.39817
N 11.35230 0.59842 -1.22266
C 11.57614 -0.46419 -1.98102
C 11.97304 -0.13706 -3.44560
C 12.55867 1.33986 -3.21188
C 11.76650 1.72214 -1.96328
C 14.03740 1.35249 -2.86182
C 10.73566 -0.11832 -4.41026
C 11.08226 -0.11194 -5.90075
H 10.21131 -0.83794 -6.82100
N 10.37381 2.90742 0.50037
C 10.85409 3.60884 -0.54778
C 10.51832 5.01554 -0.27827
C 9.94630 5.10692 1.09255
C 10.16799 3.75375 1.56144
C 10.67365 6.10017 -1.30437
C 9.31699 6.23017 1.85969
O 9.10641 6.14893 3.12139
C 9.04026 7.46311 1.10819
N 10.59317 1.01989 2.86603
C 10.36292 2.16694 3.52874
C 10.20790 1.91926 5.01030
C 10.14123 0.32998 5.17554
C 10.36877 -0.08701 3.70593
C 11.32042 2.47673 5.89794
C 8.91042 -0.24856 5.92593
C 7.65729 -0.02656 5.10999
N 10.70634 -1.19560 0.96440
C 10.72820 -1.95640 2.15384
C 11.00101 -3.35666 1.77006
C 11.14290 -3.30913 0.37504
C 10.99071 -1.97030 -0.07649
C 11.13533 -4.45392 2.66678
C 11.39736 -4.08545 -0.81714
O 11.51793 -5.28483 -1.06347
C 11.67992 -3.08596 -2.02029
C 10.86103 -3.53511 -3.19936
O 9.61875 -3.49425 -3.15845
O 11.67542 -3.73165 -4.25222
C 10.90808 -4.16757 -5.44929
H 12.12659 3.83708 -2.22314
H 9.95939 4.07700 3.62983
H 10.49549 -2.15870 4.14293
H 12.73943 -0.77922 -3.86280
H 12.30860 1.99936 -4.03886
H 14.42438 0.35558 -2.71158
H 14.11918 1.93131 -1.95115
H 14.59977 1.90378 -3.62086
H 10.23371 0.85448 -4.32991
H 10.07367 -0.93489 -4.19669
H 12.13271 -0.37094 -6.08078
H 10.99066 0.91097 -6.27395
H 11.27156 5.76208 -2.15971
H 11.27818 6.89010 -0.84566
H 9.71706 6.52397 -1.61742
H 9.96697 7.84432 0.68587
H 8.50986 8.11645 1.80368
H 8.38656 7.21869 0.26347
H 9.28545 2.35001 5.37996
H 10.99729 -0.05642 5.74798
H 10.95073 3.16772 6.67892
H 12.04625 2.97074 5.26575
H 11.92676 1.72734 6.40387
H 8.76199 0.27766 6.87209
H 9.00199 -1.30485 6.15582
H 7.37595 0.99978 5.36410
H 6.88123 -0.73192 5.40022
H 7.87709 -0.05189 4.03635
H 10.58877 -5.28013 2.23187
H 10.76042 -4.20585 3.65758
H 12.22121 -4.58066 2.65864
H 12.74998 -3.11850 -2.22880
H 11.35067 -5.10984 -5.78681
H 10.94205 -3.31457 -6.15285
H 9.87473 -4.45963 -5.30322

