%nproc=24
%mem=175gb
#p cam-b3lyp/Def2SVP td=(nstates=5)

TDDFT excited states in gaussian

0 1
Mg 0.00000 0.00000 0.00000
C -0.21700 -2.21800 2.80100
C -1.25500 2.44200 2.02600
C -0.24500 1.85000 -2.56400
C 0.14600 -2.82400 -2.03700
N -0.61700 -0.00900 2.12600
C -0.59400 -0.90800 3.10500
C -0.93600 -0.30900 4.50200
C -1.77300 0.96400 4.03200
C -1.15500 1.16800 2.66000
C -3.26300 0.68500 3.86300
C 0.34500 0.11000 5.29900
C 0.12400 0.39700 6.78700
H 1.16800 0.03300 7.73300
N -0.18500 1.96100 -0.15200
C -0.70300 2.80000 0.77700
C -0.62000 4.15600 0.19300
C -0.18700 4.01500 -1.22500
C -0.21400 2.58300 -1.38000
C -0.88700 5.40600 0.97400
C 0.18100 5.01300 -2.27700
O 0.30300 4.69000 -3.50800
C 0.31000 6.41400 -1.83700
N -0.26500 -0.41300 -2.02900
C -0.27900 0.56900 -2.93700
C -0.19600 0.02400 -4.33200
C 0.12400 -1.53300 -4.18000
C 0.08600 -1.63200 -2.63500
C -1.45100 0.20500 -5.19700
C 1.37300 -2.07000 -4.92300
C 2.62600 -1.49000 -4.30600
N 0.15000 -2.14400 0.30300
C 0.17300 -3.13600 -0.68800
C 0.17300 -4.43800 0.00400
C 0.13300 -4.11100 1.35800
C 0.08300 -2.69500 1.50200
C 0.14900 -5.71500 -0.62300
C 0.09600 -4.62900 2.71600
O 0.20800 -5.74700 3.22100
C -0.25500 -3.42800 3.70100
C 0.71700 -3.48200 4.84800
O 1.93100 -3.25500 4.66900
O 0.03800 -3.55600 6.00300
C 0.94300 -3.58300 7.18300
H -1.85900 3.22000 2.49700
H -0.21800 2.45300 -3.47400
H 0.27600 -3.74700 -2.60500
H -1.55400 -0.94900 5.13200
H -1.58500 1.83100 4.66500
H -3.48400 -0.37700 3.96900
H -3.51100 1.02700 2.85800
H -3.85200 1.30100 4.54300
H 0.66900 1.09600 4.96600
H 1.13000 -0.63900 5.18900
H -0.84400 0.02600 7.12500
H 0.06200 1.47700 6.92100
H -1.34400 5.18600 1.93800
H -1.65100 5.96300 0.43200
H 0.00700 6.02000 1.08400
H -0.63500 6.74400 -1.40500
H 0.66500 6.97000 -2.70400
H 1.04800 6.46600 -1.03600
H 0.60800 0.50100 -4.89100
H -0.69200 -2.15600 -4.54700
H -1.26700 0.74000 -6.12900
H -2.20400 0.71400 -4.59600
H -1.96700 -0.72000 -5.45300
H 1.35600 -1.75900 -5.96700
H 1.45200 -3.15700 -4.90200
H 2.71400 -0.52200 -4.79800
H 3.48700 -2.12100 -4.52900
H 2.49500 -1.30300 -3.24000
H 0.86700 -6.33300 -0.08400
H 0.40400 -5.64200 -1.68000
H -0.89100 -5.99900 -0.46300
H -1.28300 -3.58100 4.02800
H 0.69800 -4.47800 7.75500
H 0.83300 -2.61900 7.68000
H 2.00000 -3.75400 6.97600
Mg 7.88428 0.70248 0.60651
C 5.32852 1.74487 2.90011
C 10.13746 1.22154 3.11417
C 10.19970 0.22507 -1.50969
C 5.63964 1.36011 -1.97706
N 7.64223 1.39399 2.69349
C 6.61663 1.70167 3.47312
C 6.98238 1.90036 4.96856
C 8.53354 2.27520 4.78898
C 8.80667 1.55920 3.46784
C 8.77374 3.76183 4.58510
C 6.80228 0.58673 5.80758
C 6.84308 0.78205 7.32479
H 5.98278 -0.05393 8.15757
N 9.79732 0.24866 0.87648
C 10.55064 0.51304 1.96455
C 11.89356 -0.00435 1.65950
C 11.91389 -0.44784 0.23907
C 10.61550 0.02088 -0.20204
C 12.97680 -0.11556 2.69276
C 12.93824 -1.16270 -0.58911
O 12.84126 -1.23508 -1.86511
C 14.10608 -1.69476 0.12822
N 7.99318 0.98017 -1.45101
C 9.10012 0.64410 -2.13632
C 8.84968 0.67295 -3.62523
C 7.27067 0.86434 -3.79166
C 6.87525 1.00875 -2.30566
C 9.57952 1.76893 -4.40146
C 6.52181 -0.18584 -4.65711
C 6.54203 -1.53134 -3.96820
N 5.79758 1.24281 0.45890
C 5.06316 1.49508 -0.72054
C 3.71572 1.93846 -0.30793
C 3.76739 1.93544 1.09414
C 5.06231 1.53896 1.52480
C 2.66222 2.32396 -1.18409
C 3.02419 2.18774 2.30769
O 1.85394 2.46426 2.56806
C 4.04039 2.19740 3.52984
C 3.45849 1.34555 4.62450
O 3.31161 0.12134 4.46224
O 3.37467 2.07425 5.75248
C 2.81344 1.26935 6.87005
H 10.94845 1.56756 3.75561
H 10.92833 -0.03259 -2.28183
H 4.85192 1.48988 -2.72226
H 6.45848 2.71109 5.46050
H 9.13769 1.84899 5.58567
H 7.84866 4.30821 4.47625
H 9.36917 3.84291 3.68514
H 9.39455 4.15778 5.39390
H 7.68893 -0.04670 5.67578
H 5.89766 0.08006 5.53266
H 6.74369 1.83714 7.60738
H 7.83584 0.50066 7.68433
H 12.72273 0.44082 3.60341
H 13.85448 0.40386 2.29308
H 13.24735 -1.15116 2.90960
H 14.61788 -0.88196 0.63801
H 14.68004 -2.24804 -0.61765
H 13.75553 -2.38271 0.90569
H 9.14046 -0.26386 -4.08451
H 7.02501 1.82055 -4.27657
H 10.21602 1.37632 -5.21681
H 10.16993 2.34666 -3.70276
H 8.93652 2.52807 -4.84356
H 7.03086 -0.31979 -5.61475
H 5.49432 0.08667 -4.87392
H 7.51702 -1.93902 -4.25152
H 5.73101 -2.15963 -4.33088
H 6.53732 -1.41549 -2.87815
H 1.75772 1.86938 -0.80233
H 2.86265 2.01373 -2.20750
H 2.70098 3.41052 -1.06948
H 4.16746 3.23468 3.84204
H 1.94491 1.81481 7.25190
H 3.65326 1.10518 7.57112
H 2.37031 0.31134 6.62450

