%nproc=24
%mem=175gb
#p cam-b3lyp/Def2SVP td=(nstates=5)

TDDFT excited states in gaussian

0 1
Mg 0.00000 0.00000 0.00000
C -0.21700 -2.21800 2.80100
C -1.25500 2.44200 2.02600
C -0.24500 1.85000 -2.56400
C 0.14600 -2.82400 -2.03700
N -0.61700 -0.00900 2.12600
C -0.59400 -0.90800 3.10500
C -0.93600 -0.30900 4.50200
C -1.77300 0.96400 4.03200
C -1.15500 1.16800 2.66000
C -3.26300 0.68500 3.86300
C 0.34500 0.11000 5.29900
C 0.12400 0.39700 6.78700
H 1.16800 0.03300 7.73300
N -0.18500 1.96100 -0.15200
C -0.70300 2.80000 0.77700
C -0.62000 4.15600 0.19300
C -0.18700 4.01500 -1.22500
C -0.21400 2.58300 -1.38000
C -0.88700 5.40600 0.97400
C 0.18100 5.01300 -2.27700
O 0.30300 4.69000 -3.50800
C 0.31000 6.41400 -1.83700
N -0.26500 -0.41300 -2.02900
C -0.27900 0.56900 -2.93700
C -0.19600 0.02400 -4.33200
C 0.12400 -1.53300 -4.18000
C 0.08600 -1.63200 -2.63500
C -1.45100 0.20500 -5.19700
C 1.37300 -2.07000 -4.92300
C 2.62600 -1.49000 -4.30600
N 0.15000 -2.14400 0.30300
C 0.17300 -3.13600 -0.68800
C 0.17300 -4.43800 0.00400
C 0.13300 -4.11100 1.35800
C 0.08300 -2.69500 1.50200
C 0.14900 -5.71500 -0.62300
C 0.09600 -4.62900 2.71600
O 0.20800 -5.74700 3.22100
C -0.25500 -3.42800 3.70100
C 0.71700 -3.48200 4.84800
O 1.93100 -3.25500 4.66900
O 0.03800 -3.55600 6.00300
C 0.94300 -3.58300 7.18300
H -1.85900 3.22000 2.49700
H -0.21800 2.45300 -3.47400
H 0.27600 -3.74700 -2.60500
H -1.55400 -0.94900 5.13200
H -1.58500 1.83100 4.66500
H -3.48400 -0.37700 3.96900
H -3.51100 1.02700 2.85800
H -3.85200 1.30100 4.54300
H 0.66900 1.09600 4.96600
H 1.13000 -0.63900 5.18900
H -0.84400 0.02600 7.12500
H 0.06200 1.47700 6.92100
H -1.34400 5.18600 1.93800
H -1.65100 5.96300 0.43200
H 0.00700 6.02000 1.08400
H -0.63500 6.74400 -1.40500
H 0.66500 6.97000 -2.70400
H 1.04800 6.46600 -1.03600
H 0.60800 0.50100 -4.89100
H -0.69200 -2.15600 -4.54700
H -1.26700 0.74000 -6.12900
H -2.20400 0.71400 -4.59600
H -1.96700 -0.72000 -5.45300
H 1.35600 -1.75900 -5.96700
H 1.45200 -3.15700 -4.90200
H 2.71400 -0.52200 -4.79800
H 3.48700 -2.12100 -4.52900
H 2.49500 -1.30300 -3.24000
H 0.86700 -6.33300 -0.08400
H 0.40400 -5.64200 -1.68000
H -0.89100 -5.99900 -0.46300
H -1.28300 -3.58100 4.02800
H 0.69800 -4.47800 7.75500
H 0.83300 -2.61900 7.68000
H 2.00000 -3.75400 6.97600
Mg 8.92420 0.80732 0.68039
C 7.13842 -2.00286 -0.65860
C 7.30574 2.74045 -1.61705
C 10.80492 3.21733 1.53022
C 11.18841 -1.46069 2.04976
N 7.43676 0.31671 -0.88136
C 6.78689 -0.77473 -1.25657
C 5.64326 -0.52395 -2.27576
C 6.17897 0.85332 -2.90424
C 6.99879 1.36009 -1.71944
C 7.11684 0.65236 -4.08295
C 4.25121 -0.33349 -1.57724
C 3.04598 -0.39285 -2.51833
H 1.80828 -0.99234 -2.02721
N 8.71068 2.76130 0.40660
C 7.99929 3.37422 -0.56269
C 8.17742 4.81756 -0.34091
C 9.18488 5.00551 0.73818
C 9.63098 3.63918 0.92321
C 7.37012 5.85740 -1.06230
C 9.67593 6.21650 1.47206
O 10.72684 6.17958 2.20489
C 8.94423 7.46916 1.23344
N 10.84654 0.88564 1.46831
C 11.41151 2.06059 1.79728
C 12.67616 1.85309 2.59603
C 12.71364 0.29251 2.94351
C 11.45496 -0.16795 2.17598
C 13.97664 2.25013 1.89783
C 12.84704 -0.09171 4.44260
C 11.59395 0.30359 5.19019
N 9.05294 -1.34129 0.86735
C 10.09976 -2.08519 1.45459
C 9.79200 -3.51407 1.24006
C 8.58965 -3.50175 0.51707
C 8.18767 -2.15964 0.27908
C 10.60280 -4.61018 1.64902
C 7.57464 -4.31882 -0.10811
O 7.33829 -5.52531 -0.15573
C 6.65569 -3.38361 -1.00661
C 5.21993 -3.71949 -0.70946
O 4.73836 -3.49641 0.41524
O 4.59669 -4.04384 -1.85695
C 3.16692 -4.37435 -1.61539
H 7.02646 3.39662 -2.44186
H 11.43531 4.01010 1.93960
H 11.79422 -2.23136 2.53115
H 5.55237 -1.27571 -3.05060
H 5.35962 1.53411 -3.12001
H 7.36235 -0.38898 -4.22949
H 8.00720 1.22196 -3.85088
H 6.69392 1.10762 -4.98307
H 4.16521 0.70317 -1.22698
H 4.12390 -1.04194 -0.78193
H 3.30946 -0.80493 -3.50002
H 2.72362 0.62866 -2.73420
H 6.82763 5.42677 -1.91298
H 8.08122 6.55463 -1.51846
H 6.70785 6.41382 -0.39562
H 8.97021 7.70607 0.17247
H 9.38688 8.20012 1.91288
H 7.89161 7.31489 1.49578
H 12.64732 2.41816 3.51960
H 13.57084 -0.20959 2.47135
H 14.56614 2.99561 2.46423
H 13.73417 2.62600 0.91270
H 14.64961 1.42497 1.67108
H 13.67027 0.45997 4.90314
H 13.03773 -1.14767 4.60253
H 11.76077 1.36257 5.40887
H 11.49421 -0.27736 6.10484
H 10.71169 0.23562 4.54316
H 9.93566 -5.35156 2.06827
H 11.35678 -4.29996 2.36947
H 11.04393 -4.89493 0.69007
H 6.91359 -3.57486 -2.04896
H 2.99658 -5.37467 -2.02531
H 2.58878 -3.54261 -2.06003
H 2.85060 -4.51020 -0.58780

