%nproc=24
%mem=175gb
#p cam-b3lyp/Def2SVP td=(nstates=5)

TDDFT excited states in gaussian

0 1
Mg 31.53999 2.84229 2.38862
C 34.25710 0.63582 3.18097
C 33.57324 5.42808 3.29093
C 29.03419 4.77168 2.13200
C 29.41399 0.09324 2.65044
N 33.62539 2.89783 3.12366
C 34.57904 2.00132 3.32653
C 35.97645 2.60592 3.62866
C 35.50401 4.03316 4.19317
C 34.16531 4.15202 3.46761
C 35.23779 4.03042 5.68931
C 36.85279 2.76084 2.33636
C 38.33255 3.05347 2.59407
H 39.32353 2.48089 1.68711
N 31.45292 4.81560 2.19614
C 32.37664 5.71388 2.59752
C 31.83258 7.03476 2.24620
C 30.43992 6.85270 1.75421
C 30.24346 5.44445 2.03407
C 32.64593 8.29454 2.31583
C 29.44455 7.79361 1.14581
O 28.21050 7.47417 1.01204
C 29.93767 9.13402 0.79708
N 29.49483 2.53269 2.59792
C 28.61895 3.52956 2.38106
C 27.20314 3.00796 2.31952
C 27.33298 1.41413 2.29906
C 28.86457 1.28306 2.44887
C 26.28848 3.42908 3.46950
C 26.63814 0.66639 1.12827
C 27.32994 0.99303 -0.17562
N 31.77856 0.71080 2.64917
C 30.75427 -0.25508 2.75862
C 31.40586 -1.55068 3.04021
C 32.77330 -1.24207 3.09833
C 32.95912 0.15121 2.88918
C 30.73738 -2.78934 3.25229
C 34.10098 -1.77635 3.29960
O 34.57218 -2.90506 3.43279
C 35.11070 -0.56331 3.48769
C 36.30693 -0.81450 2.61107
O 36.19236 -0.82339 1.37277
O 37.42024 -0.78625 3.36613
C 38.63445 -1.01939 2.53958
H 34.04634 6.28944 3.76329
H 28.14287 5.37369 1.94067
H 28.82791 -0.82828 2.64849
H 36.54641 2.07765 4.38354
H 36.17925 4.82508 3.87969
H 35.29660 3.03639 6.10717
H 34.24111 4.43384 5.81150
H 35.91021 4.73067 6.19313
H 36.56606 3.68483 1.81793
H 36.75949 1.89725 1.70696
H 38.61386 2.86733 3.63771
H 38.50354 4.12401 2.45725
H 33.58013 8.14010 2.86974
H 32.08153 9.00611 2.92819
H 32.82278 8.73660 1.33299
H 30.33097 9.61729 1.68827
H 29.10530 9.62985 0.29389
H 30.77669 9.02783 0.10038
H 26.71073 3.33212 1.41092
H 26.88929 0.95763 3.19605
H 25.37388 3.95150 3.13089
H 26.85590 4.05513 4.14525
H 25.96410 2.61994 4.12163
H 25.60404 1.00389 1.02400
H 26.61396 -0.41052 1.25736
H 26.87464 1.94494 -0.46483
H 27.13461 0.22073 -0.91686
H 28.39980 1.17342 -0.01910
H 31.28830 -3.53900 2.70003
H 29.69902 -2.74085 2.93100
H 30.82737 -2.87606 4.33841
H 35.37890 -0.52110 4.54403
H 39.16462 -1.86797 2.98288
H 39.16789 -0.05065 2.51244
H 38.48984 -1.36773 1.52361

