%nproc=24
%mem=175gb
#p cam-b3lyp/Def2SVP td=(nstates=5)

TDDFT excited states in gaussian

0 1
Mg 0.00000 0.00000 0.00000
C -0.21700 -2.21800 2.80100
C -1.25500 2.44200 2.02600
C -0.24500 1.85000 -2.56400
C 0.14600 -2.82400 -2.03700
N -0.61700 -0.00900 2.12600
C -0.59400 -0.90800 3.10500
C -0.93600 -0.30900 4.50200
C -1.77300 0.96400 4.03200
C -1.15500 1.16800 2.66000
C -3.26300 0.68500 3.86300
C 0.34500 0.11000 5.29900
C 0.12400 0.39700 6.78700
H 1.16800 0.03300 7.73300
N -0.18500 1.96100 -0.15200
C -0.70300 2.80000 0.77700
C -0.62000 4.15600 0.19300
C -0.18700 4.01500 -1.22500
C -0.21400 2.58300 -1.38000
C -0.88700 5.40600 0.97400
C 0.18100 5.01300 -2.27700
O 0.30300 4.69000 -3.50800
C 0.31000 6.41400 -1.83700
N -0.26500 -0.41300 -2.02900
C -0.27900 0.56900 -2.93700
C -0.19600 0.02400 -4.33200
C 0.12400 -1.53300 -4.18000
C 0.08600 -1.63200 -2.63500
C -1.45100 0.20500 -5.19700
C 1.37300 -2.07000 -4.92300
C 2.62600 -1.49000 -4.30600
N 0.15000 -2.14400 0.30300
C 0.17300 -3.13600 -0.68800
C 0.17300 -4.43800 0.00400
C 0.13300 -4.11100 1.35800
C 0.08300 -2.69500 1.50200
C 0.14900 -5.71500 -0.62300
C 0.09600 -4.62900 2.71600
O 0.20800 -5.74700 3.22100
C -0.25500 -3.42800 3.70100
C 0.71700 -3.48200 4.84800
O 1.93100 -3.25500 4.66900
O 0.03800 -3.55600 6.00300
C 0.94300 -3.58300 7.18300
H -1.85900 3.22000 2.49700
H -0.21800 2.45300 -3.47400
H 0.27600 -3.74700 -2.60500
H -1.55400 -0.94900 5.13200
H -1.58500 1.83100 4.66500
H -3.48400 -0.37700 3.96900
H -3.51100 1.02700 2.85800
H -3.85200 1.30100 4.54300
H 0.66900 1.09600 4.96600
H 1.13000 -0.63900 5.18900
H -0.84400 0.02600 7.12500
H 0.06200 1.47700 6.92100
H -1.34400 5.18600 1.93800
H -1.65100 5.96300 0.43200
H 0.00700 6.02000 1.08400
H -0.63500 6.74400 -1.40500
H 0.66500 6.97000 -2.70400
H 1.04800 6.46600 -1.03600
H 0.60800 0.50100 -4.89100
H -0.69200 -2.15600 -4.54700
H -1.26700 0.74000 -6.12900
H -2.20400 0.71400 -4.59600
H -1.96700 -0.72000 -5.45300
H 1.35600 -1.75900 -5.96700
H 1.45200 -3.15700 -4.90200
H 2.71400 -0.52200 -4.79800
H 3.48700 -2.12100 -4.52900
H 2.49500 -1.30300 -3.24000
H 0.86700 -6.33300 -0.08400
H 0.40400 -5.64200 -1.68000
H -0.89100 -5.99900 -0.46300
H -1.28300 -3.58100 4.02800
H 0.69800 -4.47800 7.75500
H 0.83300 -2.61900 7.68000
H 2.00000 -3.75400 6.97600
Mg 13.14513 1.18409 1.00628
C 13.12995 -2.12495 2.39520
C 11.93548 2.28466 3.99963
C 12.72085 4.03267 -0.32525
C 13.24854 -0.29105 -2.14950
N 12.63961 0.12108 2.87890
C 12.73323 -1.12769 3.31036
C 12.45927 -1.30614 4.82782
C 11.55849 0.00199 5.06501
C 12.09676 0.87755 3.93526
C 10.07733 -0.23496 4.82137
C 13.77462 -1.26044 5.68210
C 13.61860 -1.73413 7.12883
H 14.72583 -2.45787 7.74748
N 12.90484 2.96872 1.84049
C 12.42217 3.23258 3.07284
C 12.42614 4.69807 3.20121
C 12.79554 5.28334 1.88375
C 12.80124 4.09217 1.05842
C 12.17753 5.40146 4.50384
C 13.08209 6.68510 1.43746
O 13.14933 6.99596 0.19582
C 13.18902 7.70086 2.49495
N 12.79124 1.78660 -0.95180
C 12.69816 3.09020 -1.26788
C 12.71884 3.29146 -2.76436
C 13.09014 1.86493 -3.38462
C 13.13422 1.02850 -2.08700
C 11.41568 3.79291 -3.38621
C 14.31264 1.81009 -4.34126
C 15.58335 2.08936 -3.57140
N 13.36881 -0.82100 0.23320
C 13.35887 -1.21884 -1.12168
C 13.42865 -2.69434 -1.14270
C 13.45131 -3.05655 0.21258
C 13.37894 -1.89025 1.02128
C 13.41440 -3.51131 -2.30823
C 13.50927 -4.16092 1.14302
O 13.66881 -5.37648 1.03960
C 13.17622 -3.61405 2.59781
C 14.20755 -4.16032 3.54674
O 15.40042 -3.82336 3.44613
O 13.58564 -4.81488 4.54431
C 14.56639 -5.36552 5.51731
H 11.34405 2.70233 4.81488
H 12.68500 4.99700 -0.83737
H 13.38374 -0.82115 -3.09469
H 11.89801 -2.19599 5.08653
H 11.76662 0.45508 6.03080
H 9.88818 -1.21662 4.41308
H 9.76782 0.53140 4.12285
H 9.51054 -0.05306 5.73897
H 14.05222 -0.21290 5.85628
H 14.55923 -1.81349 5.20340
H 12.67381 -2.26792 7.28817
H 13.54279 -0.85631 7.77512
H 11.77081 4.71761 5.25904
H 11.37217 6.12305 4.32898
H 13.05745 5.93551 4.86881
H 12.26234 7.72952 3.06319
H 13.48488 8.62106 1.98742
H 13.97708 7.39738 3.19315
H 13.48089 4.00702 -3.04783
H 12.26849 1.45865 -3.99262
H 11.53732 4.73400 -3.95509
H 10.68647 3.91736 -2.59672
H 10.91925 3.08720 -4.05009
H 14.23315 2.59008 -5.10246
H 14.41283 0.86265 -4.86022
H 15.61454 3.18242 -3.53482
H 16.44651 1.68727 -4.09801
H 15.50612 1.72709 -2.53968
H 14.16802 -4.27388 -2.16317
H 13.60655 -2.92701 -3.20569
H 12.38705 -3.88357 -2.27293
H 12.16931 -3.94825 2.85084
H 14.37151 -6.43967 5.59420
H 14.44388 -4.76420 6.43772
H 15.61200 -5.36013 5.23248

