%nproc=24
%mem=175gb
#p cam-b3lyp/Def2SVP td=(nstates=5)

TDDFT excited states in gaussian

0 1
Mg 13.14653 1.18120 0.99125
C 12.83925 4.06838 -1.11797
C 12.64634 -0.72229 -1.79463
C 12.96274 -1.36029 2.88188
C 12.48367 3.26508 3.70488
N 12.79993 1.71946 -1.12592
C 12.76509 2.84715 -1.81978
C 12.72469 2.65399 -3.35946
C 12.09575 1.17695 -3.40009
C 12.56904 0.67222 -2.03850
C 10.57615 1.16997 -3.41023
C 14.15499 2.68719 -4.00377
C 14.17061 2.81454 -5.52866
H 15.23672 3.59457 -6.15109
N 13.33602 -0.74895 0.57034
C 13.11496 -1.34806 -0.61856
C 13.37306 -2.78002 -0.40165
C 13.60446 -3.00003 1.05188
C 13.28246 -1.68626 1.57189
C 13.46132 -3.77042 -1.52626
C 14.03101 -4.19848 1.84434
O 13.93756 -4.22876 3.12230
C 14.47369 -5.36999 1.07422
N 12.56951 0.93738 2.97366
C 12.63293 -0.26653 3.56907
C 12.43404 -0.14821 5.06133
C 12.46476 1.41949 5.37588
C 12.59245 1.96400 3.93623
C 11.14144 -0.75189 5.61010
C 13.48507 1.90344 6.44239
C 14.89489 1.72127 5.92797
N 12.91613 3.30716 1.29992
C 12.61607 3.96542 2.51266
C 12.44615 5.39909 2.19938
C 12.63796 5.47256 0.81146
C 12.88837 4.17327 0.29317
C 12.10708 6.41984 3.13171
C 12.67503 6.35231 -0.33456
O 12.61990 7.57069 -0.49654
C 12.68180 5.46464 -1.65304
C 13.75765 5.99192 -2.56246
O 14.95490 5.91830 -2.23418
O 13.21590 6.29566 -3.75604
C 14.24589 6.81248 -4.69617
H 12.27394 -1.40419 -2.55962
H 12.99510 -2.18736 3.59490
H 12.37253 3.99397 4.51051
H 12.08069 3.34699 -3.88747
H 12.53217 0.58366 -4.19941
H 10.16776 2.15958 -3.26869
H 10.27955 0.51863 -2.59854
H 10.20745 0.69802 -4.32547
H 14.62065 1.69945 -3.89294
H 14.75030 3.46695 -3.56992
H 13.19332 3.11261 -5.92742
H 14.34462 1.82479 -5.95777
H 13.08366 -3.34744 -2.46533
H 12.76298 -4.58160 -1.29349
H 14.46346 -4.18892 -1.64128
H 13.67191 -5.69221 0.41408
H 14.82254 -6.09195 1.81513
H 15.30934 -5.07090 0.43169
H 13.24157 -0.63031 5.59852
H 11.49885 1.77652 5.76238
H 11.31382 -1.51475 6.39266
H 10.58411 -1.17357 4.78420
H 10.43504 -0.03359 6.02269
H 13.40393 1.29607 7.34719
H 13.34508 2.93851 6.73570
H 15.10493 0.67080 6.15042
H 15.58255 2.38108 6.45314
H 14.93524 1.84210 4.83920
H 12.74357 7.26654 2.91152
H 12.23631 6.08042 4.15731
H 11.05432 6.57253 2.87944
H 11.69148 5.53999 -2.10378
H 13.89861 7.79006 -5.04464
H 14.37653 6.02279 -5.45976
H 15.21632 7.06663 -4.28613

