%nproc=24
%mem=175gb
#p cam-b3lyp/Def2SVP td=(nstates=5)

TDDFT excited states in gaussian

0 1
Mg 13.13316 1.18692 1.00620
C 10.78517 -1.44913 1.65214
C 10.45930 3.22462 0.42924
C 15.16641 3.40314 -0.00458
C 15.55010 -1.27504 0.51339
N 10.95286 0.81939 1.06500
C 10.17650 -0.20554 1.38302
C 8.66729 0.14055 1.49287
C 8.64837 1.43724 0.54572
C 10.09978 1.88267 0.71212
C 8.41452 1.10890 -0.91950
C 8.24064 0.49506 2.96062
C 6.72954 0.54132 3.19768
H 6.21303 0.08911 4.48656
N 12.89511 3.14525 0.78978
C 11.73644 3.80654 0.58618
C 12.09897 5.22771 0.47220
C 13.58334 5.33368 0.46054
C 13.94711 3.93257 0.39236
C 11.07957 6.32963 0.46701
C 14.52021 6.50310 0.49111
O 15.76885 6.37247 0.23288
C 13.91667 7.82031 0.74047
N 15.02147 1.07945 0.14302
C 15.71085 2.19529 -0.15290
C 17.14375 1.87397 -0.50497
C 17.33742 0.32720 -0.14777
C 15.89472 -0.01530 0.28431
C 17.54057 2.11320 -1.96157
C 18.50233 -0.03231 0.81474
C 18.21735 0.51223 2.19592
N 13.23938 -0.95798 1.24321
C 14.34004 -1.79449 0.95532
C 13.89537 -3.18732 1.16684
C 12.54952 -3.06479 1.54387
C 12.17575 -1.69373 1.54621
C 14.68580 -4.35317 0.96160
C 11.35708 -3.78423 1.93012
O 11.09517 -4.95951 2.18279
C 10.12655 -2.77876 1.89487
C 9.34801 -2.95260 3.17008
O 9.85418 -2.65215 4.26559
O 8.06767 -3.23671 2.86943
C 7.25289 -3.40720 4.10186
H 9.70266 3.88645 0.00693
H 15.93808 4.13410 -0.25699
H 16.27179 -2.09381 0.47546
H 7.99806 -0.61596 1.10095
H 7.97047 2.19588 0.92817
H 8.41738 0.04408 -1.09919
H 9.22134 1.58602 -1.46028
H 7.49406 1.58446 -1.27012
H 8.49493 1.54322 3.16416
H 8.69613 -0.17619 3.66246
H 6.16903 0.07970 2.37568
H 6.40852 1.58576 3.18766
H 10.06521 5.93853 0.32039
H 11.26858 6.93588 -0.42552
H 11.14645 6.96947 1.34951
H 13.17223 8.02714 -0.02471
H 14.75447 8.51639 0.81427
H 13.38343 7.78538 1.69706
H 17.82989 2.46128 0.09284
H 17.54832 -0.27463 -1.04395
H 18.39654 2.80532 -2.07273
H 16.67647 2.48856 -2.49352
H 17.78763 1.21582 -2.52626
H 19.42938 0.43972 0.48022
H 18.69097 -1.09834 0.88529
H 18.54880 1.55247 2.12429
H 18.78579 -0.03231 2.94718
H 17.14043 0.52274 2.40035
H 14.49732 -5.00889 1.80125
H 15.74235 -4.10744 0.87741
H 14.26981 -4.70657 0.01433
H 9.53006 -3.02176 1.01468
H 6.78254 -4.39343 4.04000
H 6.58023 -2.52977 4.13904
H 7.78088 -3.48349 5.04518

