%nproc=24
%mem=175gb
#p cam-b3lyp/Def2SVP td=(nstates=5)

TDDFT excited states in gaussian

0 1
Mg 8.92805 0.80652 0.67035
C 9.79130 -1.88426 -1.54179
C 10.02432 2.94781 -1.74786
C 8.60155 3.17359 2.75789
C 8.98312 -1.50448 3.27840
N 9.77567 0.45648 -1.34243
C 9.99951 -0.60613 -2.10078
C 10.39641 -0.27900 -3.56537
C 10.98204 1.19792 -3.33165
C 10.18987 1.58020 -2.08304
C 12.46077 1.21055 -2.98159
C 9.15903 -0.26026 -4.53002
C 9.50563 -0.25388 -6.02052
H 8.63468 -0.97988 -6.94076
N 8.79718 2.76548 0.38060
C 9.27746 3.46690 -0.66754
C 8.94169 4.87360 -0.39804
C 8.36967 4.96498 0.97278
C 8.59137 3.61181 1.44167
C 9.09702 5.95823 -1.42414
C 7.74037 6.08823 1.73992
O 7.52979 6.00699 3.00162
C 7.46363 7.32117 0.98842
N 9.01654 0.87795 2.74626
C 8.78629 2.02500 3.40897
C 8.63127 1.77732 4.89053
C 8.56460 0.18804 5.05577
C 8.79214 -0.22895 3.58617
C 9.74379 2.33479 5.77817
C 7.33379 -0.39050 5.80616
C 6.08066 -0.16850 4.99022
N 9.12972 -1.33754 0.84463
C 9.15157 -2.09834 2.03408
C 9.42438 -3.49860 1.65030
C 9.56627 -3.45107 0.25527
C 9.41408 -2.11224 -0.19625
C 9.55870 -4.59586 2.54701
C 9.82073 -4.22739 -0.93691
O 9.94130 -5.42677 -1.18324
C 10.10329 -3.22790 -2.14005
C 9.28441 -3.67705 -3.31912
O 8.04212 -3.63619 -3.27822
O 10.09879 -3.87359 -4.37199
C 9.33145 -4.30951 -5.56906
H 10.54996 3.69514 -2.34290
H 8.38276 3.93506 3.51006
H 8.91886 -2.30064 4.02316
H 11.16281 -0.92116 -3.98256
H 10.73198 1.85742 -4.15862
H 12.84775 0.21364 -2.83134
H 12.54255 1.78937 -2.07092
H 13.02314 1.76184 -3.74063
H 8.65709 0.71254 -4.44968
H 8.49704 -1.07683 -4.31646
H 10.55609 -0.51288 -6.20055
H 9.41404 0.76903 -6.39372
H 9.69493 5.62014 -2.27947
H 9.70155 6.74816 -0.96542
H 8.14043 6.38203 -1.73719
H 8.39034 7.70238 0.56610
H 6.93324 7.97451 1.68391
H 6.80993 7.07675 0.14370
H 7.70882 2.20807 5.26019
H 9.42066 -0.19836 5.62821
H 9.37410 3.02578 6.55916
H 10.46962 2.82880 5.14598
H 10.35013 1.58540 6.28411
H 7.18537 0.13572 6.75233
H 7.42536 -1.44679 6.03605
H 5.79932 0.85784 5.24433
H 5.30460 -0.87386 5.28045
H 6.30046 -0.19383 3.91658
H 9.01214 -5.42207 2.11211
H 9.18380 -4.34779 3.53781
H 10.64458 -4.72260 2.53887
H 11.17335 -3.26044 -2.34857
H 9.77405 -5.25178 -5.90657
H 9.36543 -3.45651 -6.27261
H 8.29810 -4.60157 -5.42298

