%nproc=24
%mem=175gb
#p cam-b3lyp/Def2SVP td=(nstates=5)

TDDFT excited states in gaussian

0 1
Mg 10.51792 0.94285 0.80557
C 10.68747 -2.54393 -0.02669
C 9.48365 -0.00286 3.91531
C 9.92660 3.99716 1.42924
C 10.44820 1.61319 -2.61372
N 10.16951 -1.04638 1.70769
C 10.32631 -2.30160 1.31505
C 10.16056 -3.35411 2.44391
C 9.24232 -2.49390 3.44178
C 9.67876 -1.09033 3.02681
C 7.75514 -2.63380 3.16239
C 11.52890 -3.73757 3.10922
C 11.48410 -4.97942 4.00227
H 12.65005 -5.85816 4.03149
N 10.28570 1.87772 2.54069
C 9.88038 1.33663 3.70869
C 9.85281 2.44386 4.67691
C 10.11610 3.71303 3.94574
C 10.09868 3.23721 2.57703
C 9.67362 2.23063 6.15199
C 10.33326 5.12398 4.40210
O 10.30785 6.10846 3.58174
C 10.48352 5.32885 5.85018
N 10.01608 2.55745 -0.40422
C 9.86611 3.78915 0.11380
C 9.78005 4.83204 -0.97495
C 10.14756 4.06852 -2.33125
C 10.30220 2.63401 -1.78019
C 8.42456 5.52115 -1.13040
C 11.30364 4.66214 -3.18200
C 12.61535 4.51396 -2.44521
N 10.74376 -0.20683 -1.00973
C 10.65317 0.26759 -2.33668
C 10.76184 -0.90621 -3.22708
C 10.88599 -1.99331 -2.34884
C 10.83648 -1.53191 -1.00565
C 10.69124 -0.88147 -4.64853
C 11.03700 -3.42740 -2.25252
O 11.22248 -4.33749 -3.05941
C 10.78818 -3.86155 -0.74388
C 11.89590 -4.79584 -0.34069
O 13.06954 -4.39088 -0.26880
O 11.36103 -5.94863 0.10134
C 12.42006 -6.90373 0.52330
H 8.93744 -0.18153 4.84193
H 9.82976 5.07386 1.58676
H 10.53369 1.74919 -3.69393
H 9.64270 -4.25887 2.14895
H 9.50275 -2.68285 4.47997
H 7.56583 -3.19768 2.26109
H 7.37820 -1.62427 3.06327
H 7.24690 -3.06130 4.03145
H 11.78880 -2.97751 3.85722
H 12.29423 -3.85388 2.36668
H 10.56724 -5.56231 3.85205
H 11.42809 -4.65559 5.04439
H 9.33780 1.20996 6.37301
H 8.83878 2.86561 6.46777
H 10.56121 2.50166 6.72764
H 9.59694 4.96065 6.36092
H 10.71903 6.38783 5.97261
H 11.32500 4.72266 6.20382
H 10.50127 5.62318 -0.81053
H 9.29815 4.04697 -3.02973
H 8.48159 6.62222 -1.03842
H 7.74725 5.11248 -0.39231
H 7.90393 5.31102 -2.06314
H 11.15150 5.73376 -3.33245
H 11.39448 4.20884 -4.16346
H 12.61894 5.37632 -1.77184
H 13.45164 4.55248 -3.14032
H 12.61801 3.61072 -1.82408
H 11.47358 -1.53522 -5.01053
H 10.80618 0.12916 -5.03477
H 9.67923 -1.26628 -4.80027
H 9.81023 -4.34230 -0.69838
H 12.26038 -7.82764 -0.04112
H 12.34360 -6.96693 1.62508
H 13.44348 -6.66719 0.25663

