%nproc=24
%mem=175gb
#p cam-b3lyp/Def2SVP td=(nstates=5)

TDDFT excited states in gaussian

0 1
Mg 15.76116 1.42161 1.18865
C 16.93392 -1.23275 -0.92277
C 17.12062 3.60397 -1.05273
C 15.14120 3.76080 3.24078
C 15.52252 -0.91729 3.76125
N 16.85938 1.10522 -0.70504
C 17.19194 0.05416 -1.43923
C 17.76448 0.40277 -2.83931
C 18.29465 1.88463 -2.52014
C 17.34676 2.24249 -1.37728
C 19.71750 1.91297 -1.98719
C 16.65762 0.41582 -3.95139
C 17.18818 0.44335 -5.38649
H 16.45009 -0.28386 -6.41550
N 15.63916 3.38175 0.90312
C 16.23678 4.10108 -0.06987
C 15.84945 5.50012 0.16853
C 15.10886 5.56868 1.45753
C 15.28969 4.21344 1.93785
C 16.11638 6.59805 -0.81977
C 14.37209 6.67490 2.15012
O 14.00624 6.57686 3.37461
C 14.17383 7.91234 1.38141
N 15.58772 1.47113 3.25983
C 15.25956 2.60759 3.89912
C 14.92369 2.34144 5.34713
C 14.85995 0.74967 5.48782
C 15.27594 0.35209 4.05455
C 15.90795 2.90372 6.37254
C 13.55335 0.14658 6.07239
C 12.40927 0.36099 5.10777
N 15.97056 -0.72140 1.36678
C 15.85423 -1.49501 2.54240
C 16.19332 -2.88718 2.18279
C 16.50823 -2.82228 0.81710
C 16.39438 -1.48065 0.36261
C 16.23013 -3.99245 3.07897
C 16.92138 -3.58186 -0.34093
O 17.08931 -4.77673 -0.58140
C 17.33794 -2.56541 -1.48971
C 16.67992 -3.01225 -2.76636
O 15.44185 -2.98831 -2.88129
O 17.62262 -3.18627 -3.71050
C 17.01779 -3.61899 -4.99843
H 17.70577 4.36477 -1.57010
H 14.81880 4.51090 3.96665
H 15.37701 -1.72246 4.48458
H 18.58638 -0.22450 -3.16303
H 18.14065 2.54991 -3.36575
H 20.09706 0.91968 -1.79891
H 19.67607 2.48268 -1.06808
H 20.36250 2.48007 -2.66447
H 16.13547 1.38092 -3.92557
H 15.98603 -0.41177 -3.83023
H 18.25657 0.20032 -5.43570
H 17.12921 1.46904 -5.75864
H 16.82163 6.27744 -1.59645
H 16.64709 7.39078 -0.28145
H 15.20051 7.01258 -1.24640
H 15.14052 8.31047 1.08230
H 13.55100 8.55081 2.01093
H 13.63479 7.66867 0.45909
H 13.95601 2.75579 5.60214
H 15.64305 0.36832 6.15951
H 15.43328 3.58103 7.10739
H 16.70003 3.41430 5.84107
H 16.45693 2.15686 6.94352
H 13.27986 0.66023 6.99733
H 13.63073 -0.91090 6.30205
H 12.08340 1.38062 5.33416
H 11.61329 -0.35777 5.29170
H 12.76225 0.35051 4.07000
H 15.75447 -4.82096 2.57120
H 15.73043 -3.76040 4.01717
H 17.31020 -4.10469 3.20596
H 18.42606 -2.58144 -1.56259
H 17.51286 -4.55151 -5.28654
H 17.12727 -2.75785 -5.68414
H 15.97864 -3.92634 -4.98591

