%nproc=24
%mem=175gb
#p cam-b3lyp/Def2SVP td=(nstates=5)

TDDFT excited states in gaussian

0 1
Mg 0.00000 0.00000 0.00000
C -0.21700 -2.21800 2.80100
C -1.25500 2.44200 2.02600
C -0.24500 1.85000 -2.56400
C 0.14600 -2.82400 -2.03700
N -0.61700 -0.00900 2.12600
C -0.59400 -0.90800 3.10500
C -0.93600 -0.30900 4.50200
C -1.77300 0.96400 4.03200
C -1.15500 1.16800 2.66000
C -3.26300 0.68500 3.86300
C 0.34500 0.11000 5.29900
C 0.12400 0.39700 6.78700
H 1.16800 0.03300 7.73300
N -0.18500 1.96100 -0.15200
C -0.70300 2.80000 0.77700
C -0.62000 4.15600 0.19300
C -0.18700 4.01500 -1.22500
C -0.21400 2.58300 -1.38000
C -0.88700 5.40600 0.97400
C 0.18100 5.01300 -2.27700
O 0.30300 4.69000 -3.50800
C 0.31000 6.41400 -1.83700
N -0.26500 -0.41300 -2.02900
C -0.27900 0.56900 -2.93700
C -0.19600 0.02400 -4.33200
C 0.12400 -1.53300 -4.18000
C 0.08600 -1.63200 -2.63500
C -1.45100 0.20500 -5.19700
C 1.37300 -2.07000 -4.92300
C 2.62600 -1.49000 -4.30600
N 0.15000 -2.14400 0.30300
C 0.17300 -3.13600 -0.68800
C 0.17300 -4.43800 0.00400
C 0.13300 -4.11100 1.35800
C 0.08300 -2.69500 1.50200
C 0.14900 -5.71500 -0.62300
C 0.09600 -4.62900 2.71600
O 0.20800 -5.74700 3.22100
C -0.25500 -3.42800 3.70100
C 0.71700 -3.48200 4.84800
O 1.93100 -3.25500 4.66900
O 0.03800 -3.55600 6.00300
C 0.94300 -3.58300 7.18300
H -1.85900 3.22000 2.49700
H -0.21800 2.45300 -3.47400
H 0.27600 -3.74700 -2.60500
H -1.55400 -0.94900 5.13200
H -1.58500 1.83100 4.66500
H -3.48400 -0.37700 3.96900
H -3.51100 1.02700 2.85800
H -3.85200 1.30100 4.54300
H 0.66900 1.09600 4.96600
H 1.13000 -0.63900 5.18900
H -0.84400 0.02600 7.12500
H 0.06200 1.47700 6.92100
H -1.34400 5.18600 1.93800
H -1.65100 5.96300 0.43200
H 0.00700 6.02000 1.08400
H -0.63500 6.74400 -1.40500
H 0.66500 6.97000 -2.70400
H 1.04800 6.46600 -1.03600
H 0.60800 0.50100 -4.89100
H -0.69200 -2.15600 -4.54700
H -1.26700 0.74000 -6.12900
H -2.20400 0.71400 -4.59600
H -1.96700 -0.72000 -5.45300
H 1.35600 -1.75900 -5.96700
H 1.45200 -3.15700 -4.90200
H 2.71400 -0.52200 -4.79800
H 3.48700 -2.12100 -4.52900
H 2.49500 -1.30300 -3.24000
H 0.86700 -6.33300 -0.08400
H 0.40400 -5.64200 -1.68000
H -0.89100 -5.99900 -0.46300
H -1.28300 -3.58100 4.02800
H 0.69800 -4.47800 7.75500
H 0.83300 -2.61900 7.68000
H 2.00000 -3.75400 6.97600
Mg 8.94072 0.81267 0.67942
C 8.38547 1.80154 4.08426
C 7.84863 3.91010 -0.24141
C 8.98970 -0.17527 -2.33538
C 8.88598 -2.49464 1.77688
N 8.23607 2.54482 1.86069
C 8.12674 2.82635 3.15031
C 7.79490 4.31106 3.45865
C 7.10116 4.69730 2.06279
C 7.79279 3.68086 1.15660
C 5.60697 4.42153 2.03672
C 9.08227 5.16999 3.71734
C 8.82307 6.55012 4.32546
H 9.79165 7.08350 5.27931
N 8.95951 1.85059 -1.01201
C 8.49592 3.10353 -1.20307
C 8.72258 3.40387 -2.62525
C 9.20687 2.16611 -3.29467
C 9.04750 1.20607 -2.22088
C 8.55629 4.77937 -3.20297
C 9.71563 1.88941 -4.67699
O 9.85752 0.69338 -5.11541
C 9.95410 3.05974 -5.53428
N 8.72743 -1.06207 -0.19362
C 8.84318 -1.22256 -1.52357
C 8.92787 -2.68476 -1.89124
C 9.08885 -3.46746 -0.50595
C 8.97478 -2.27738 0.47186
C 7.73158 -3.24830 -2.65785
C 10.30931 -4.41902 -0.37295
C 11.59042 -3.61655 -0.36013
N 8.87023 -0.19061 2.59162
C 8.82930 -1.58299 2.82333
C 8.67157 -1.77761 4.27924
C 8.60806 -0.47443 4.79518
C 8.69812 0.46589 3.73349
C 8.55765 -3.03142 4.94340
C 8.47463 0.31948 5.99543
O 8.44741 0.07405 7.20073
C 8.19746 1.82728 5.57577
C 9.11105 2.70925 6.38199
O 10.34351 2.65383 6.22523
O 8.37376 3.62017 7.04305
C 9.23618 4.52532 7.84849
H 7.31056 4.76656 -0.64862
H 9.11411 -0.57020 -3.34633
H 8.95896 -3.49521 2.20840
H 7.09774 4.46078 4.27433
H 7.35503 5.71061 1.76260
H 5.27809 3.89956 2.92302
H 5.43473 3.81705 1.15583
H 5.05467 5.35192 1.87650
H 9.51388 5.46762 2.75304
H 9.78285 4.63253 4.32640
H 7.80406 6.64163 4.72068
H 8.86893 7.29514 3.52741
H 8.03246 5.44701 -2.50781
H 7.87569 4.68763 -4.05634
H 9.49960 5.20827 -3.54777
H 9.03047 3.62371 -5.64062
H 10.39929 2.66547 -6.44983
H 10.67033 3.72040 -5.03312
H 9.79709 -2.87882 -2.50759
H 8.22818 -4.12240 -0.30559
H 8.00925 -3.70173 -3.62810
H 7.01284 -2.45255 -2.80181
H 7.14732 -3.99275 -2.11967
H 10.36778 -5.08323 -1.23872
H 10.27398 -5.04571 0.51193
H 11.78868 -3.45118 -1.42335
H 12.39290 -4.18347 0.10750
H 11.43543 -2.63507 0.10284
H 9.18149 -2.97431 5.82548
H 8.85737 -3.85292 4.29605
H 7.48472 -3.04435 5.15296
H 7.14573 2.03512 5.77639
H 8.87662 4.47421 8.88086
H 9.18725 5.50974 7.34622
H 10.27623 4.24728 7.97276

