%nproc=24
%mem=175gb
#p cam-b3lyp/Def2SVP td=(nstates=5)

TDDFT excited states in gaussian

0 1
Mg 7.89175 0.71446 0.60277
C 8.64466 -1.43250 3.37815
C 7.55640 3.25631 2.85247
C 6.78811 2.52511 -1.75752
C 7.16918 -2.15342 -1.24082
N 8.09932 0.77926 2.80390
C 8.44889 -0.08472 3.74501
C 8.67535 0.54603 5.14516
C 7.76213 1.85527 4.96966
C 7.83353 2.00131 3.45103
C 6.31046 1.63327 5.36042
C 10.17784 0.92298 5.39500
C 10.52438 1.25560 6.84794
H 11.83643 0.86621 7.35723
N 7.73822 2.68810 0.46217
C 7.63408 3.57059 1.47787
C 7.52698 4.89642 0.84950
C 7.41062 4.70991 -0.62237
C 7.28412 3.26816 -0.69620
C 7.62076 6.17612 1.62860
C 7.40039 5.67120 -1.77216
O 7.04975 5.30810 -2.95031
C 7.72293 7.07104 -1.45923
N 6.89224 0.27101 -1.16547
C 6.57310 1.24031 -2.04099
C 6.11119 0.65768 -3.35537
C 6.41778 -0.90913 -3.26219
C 6.94488 -0.97805 -1.81209
C 4.63564 0.86799 -3.69434
C 7.28514 -1.52506 -4.39400
C 8.69546 -0.98646 -4.31460
N 8.07103 -1.41693 0.90786
C 7.68524 -2.44167 0.01615
C 7.89619 -3.72723 0.71278
C 8.37212 -3.35738 1.97974
C 8.43301 -1.94071 2.07366
C 7.60764 -5.01697 0.18419
C 8.82679 -3.84301 3.26276
O 9.07058 -4.95270 3.73486
C 8.90363 -2.61537 4.26943
C 10.22738 -2.68014 4.98077
O 11.29011 -2.52520 4.35370
O 10.01349 -2.69666 6.30905
C 11.29727 -2.74949 7.05801
H 7.20517 4.06863 3.48938
H 6.49754 3.09952 -2.64019
H 7.06040 -3.09575 -1.78199
H 8.31545 -0.04978 5.97539
H 8.20990 2.71741 5.45709
H 6.10656 0.59587 5.58036
H 5.72396 1.96266 4.51274
H 6.03825 2.29250 6.18967
H 10.38656 1.89280 4.92531
H 10.82932 0.15013 5.03596
H 9.73459 0.94331 7.54194
H 10.56160 2.34234 6.95576
H 7.53879 5.99697 2.70776
H 6.73111 6.76603 1.38285
H 8.51063 6.75753 1.37807
H 7.01846 7.44771 -0.72146
H 7.75206 7.58631 -2.42127
H 8.71446 7.10605 -0.99419
H 6.67126 1.07679 -4.18228
H 5.49508 -1.50721 -3.28992
H 4.47894 1.38264 -4.66111
H 4.17625 1.42468 -2.88836
H 4.03407 -0.03899 -3.72088
H 6.89551 -1.23180 -5.37193
H 7.31733 -2.60925 -4.37209
H 8.62406 -0.02939 -4.83996
H 9.39098 -1.65908 -4.81246
H 8.97728 -0.77272 -3.27704
H 8.44338 -5.65352 0.44273
H 7.45307 -4.98005 -0.89216
H 6.68498 -5.24692 0.72373
H 8.06344 -2.70424 4.95919
H 11.24685 -3.62150 7.71735
H 11.40311 -1.75926 7.53966
H 12.19801 -2.96240 6.49428

