%nproc=24
%mem=175gb
#p cam-b3lyp/Def2SVP td=(nstates=5)

TDDFT excited states in gaussian

0 1
Mg 0.00000 0.00000 0.00000
C -0.21700 -2.21800 2.80100
C -1.25500 2.44200 2.02600
C -0.24500 1.85000 -2.56400
C 0.14600 -2.82400 -2.03700
N -0.61700 -0.00900 2.12600
C -0.59400 -0.90800 3.10500
C -0.93600 -0.30900 4.50200
C -1.77300 0.96400 4.03200
C -1.15500 1.16800 2.66000
C -3.26300 0.68500 3.86300
C 0.34500 0.11000 5.29900
C 0.12400 0.39700 6.78700
H 1.16800 0.03300 7.73300
N -0.18500 1.96100 -0.15200
C -0.70300 2.80000 0.77700
C -0.62000 4.15600 0.19300
C -0.18700 4.01500 -1.22500
C -0.21400 2.58300 -1.38000
C -0.88700 5.40600 0.97400
C 0.18100 5.01300 -2.27700
O 0.30300 4.69000 -3.50800
C 0.31000 6.41400 -1.83700
N -0.26500 -0.41300 -2.02900
C -0.27900 0.56900 -2.93700
C -0.19600 0.02400 -4.33200
C 0.12400 -1.53300 -4.18000
C 0.08600 -1.63200 -2.63500
C -1.45100 0.20500 -5.19700
C 1.37300 -2.07000 -4.92300
C 2.62600 -1.49000 -4.30600
N 0.15000 -2.14400 0.30300
C 0.17300 -3.13600 -0.68800
C 0.17300 -4.43800 0.00400
C 0.13300 -4.11100 1.35800
C 0.08300 -2.69500 1.50200
C 0.14900 -5.71500 -0.62300
C 0.09600 -4.62900 2.71600
O 0.20800 -5.74700 3.22100
C -0.25500 -3.42800 3.70100
C 0.71700 -3.48200 4.84800
O 1.93100 -3.25500 4.66900
O 0.03800 -3.55600 6.00300
C 0.94300 -3.58300 7.18300
H -1.85900 3.22000 2.49700
H -0.21800 2.45300 -3.47400
H 0.27600 -3.74700 -2.60500
H -1.55400 -0.94900 5.13200
H -1.58500 1.83100 4.66500
H -3.48400 -0.37700 3.96900
H -3.51100 1.02700 2.85800
H -3.85200 1.30100 4.54300
H 0.66900 1.09600 4.96600
H 1.13000 -0.63900 5.18900
H -0.84400 0.02600 7.12500
H 0.06200 1.47700 6.92100
H -1.34400 5.18600 1.93800
H -1.65100 5.96300 0.43200
H 0.00700 6.02000 1.08400
H -0.63500 6.74400 -1.40500
H 0.66500 6.97000 -2.70400
H 1.04800 6.46600 -1.03600
H 0.60800 0.50100 -4.89100
H -0.69200 -2.15600 -4.54700
H -1.26700 0.74000 -6.12900
H -2.20400 0.71400 -4.59600
H -1.96700 -0.72000 -5.45300
H 1.35600 -1.75900 -5.96700
H 1.45200 -3.15700 -4.90200
H 2.71400 -0.52200 -4.79800
H 3.48700 -2.12100 -4.52900
H 2.49500 -1.30300 -3.24000
H 0.86700 -6.33300 -0.08400
H 0.40400 -5.64200 -1.68000
H -0.89100 -5.99900 -0.46300
H -1.28300 -3.58100 4.02800
H 0.69800 -4.47800 7.75500
H 0.83300 -2.61900 7.68000
H 2.00000 -3.75400 6.97600
Mg 13.13920 1.17552 1.00570
C 10.63969 2.36486 3.28977
C 15.40476 1.53890 3.52954
C 15.43327 0.56424 -1.09930
C 10.95664 1.98634 -1.58751
N 12.92801 1.87016 3.09499
C 11.91891 2.23775 3.87019
C 12.28702 2.40535 5.36885
C 13.85979 2.68277 5.20057
C 14.09564 1.95779 3.87715
C 14.19427 4.15237 5.00634
C 12.01941 1.10136 6.19952
C 12.06287 1.28593 7.71801
H 11.14649 0.50147 8.54102
N 15.01818 0.60084 1.28453
C 15.77979 0.81171 2.37850
C 17.08940 0.21243 2.07860
C 17.09073 -0.22416 0.65589
C 15.82718 0.32758 0.20966
C 18.15699 0.02797 3.11766
C 18.07328 -0.99779 -0.17012
O 17.97996 -1.05737 -1.44706
C 19.20081 -1.60595 0.55120
N 13.27828 1.45637 -1.04957
C 14.36618 1.05484 -1.73014
C 14.12740 1.10704 -3.22032
C 12.56464 1.39825 -3.39508
C 12.16975 1.55962 -1.91069
C 14.92959 2.15890 -3.98614
C 11.75666 0.40173 -4.27076
C 11.68790 -0.94590 -3.58918
N 11.09158 1.84682 0.84866
C 10.38191 2.15086 -0.33371
C 9.06245 2.67602 0.07331
C 9.10501 2.66255 1.47563
C 10.36971 2.18317 1.91179
C 8.04080 3.13152 -0.80696
C 8.37154 2.95487 2.68611
O 7.21939 3.30313 2.94104
C 9.37864 2.89429 3.91432
C 8.73745 2.07514 5.00078
O 8.51489 0.86344 4.83089
O 8.69254 2.80186 6.13224
C 8.07479 2.02814 7.24200
H 16.23186 1.82990 4.17770
H 16.14909 0.26522 -1.86849
H 10.18333 2.16924 -2.33665
H 11.81206 3.24490 5.86213
H 14.43092 2.21530 5.99848
H 13.30609 4.75642 4.89501
H 14.79927 4.20044 4.11040
H 14.83366 4.50431 5.82100
H 12.86527 0.41409 6.06950
H 11.08646 0.65404 5.91643
H 12.02826 2.34372 8.00582
H 13.03369 0.94079 8.08188
H 17.93269 0.59456 4.02984
H 19.06809 0.49319 2.72608
H 18.36051 -1.02369 3.33038
H 19.75950 -0.82960 1.06850
H 19.74352 -2.19041 -0.19429
H 18.80282 -2.27447 1.32276
H 14.36157 0.15616 -3.68304
H 12.38264 2.37050 -3.87616
H 15.54525 1.73121 -4.79984
H 15.55076 2.69474 -3.28076
H 14.33839 2.95926 -4.42785
H 12.26230 0.24094 -5.22607
H 10.74974 0.73946 -4.49217
H 12.63709 -1.41265 -3.86895
H 10.84127 -1.52004 -3.96014
H 11.68364 -0.83558 -2.49855
H 7.10713 2.73280 -0.43310
H 8.22775 2.81456 -1.83085
H 8.14709 4.21290 -0.68612
H 9.56872 3.91991 4.23300
H 7.23989 2.62520 7.62168
H 8.89820 1.80786 7.94713
H 7.57384 1.10118 6.98853

