%nproc=24
%mem=175gb
#p cam-b3lyp/Def2SVP td=(nstates=5)

TDDFT excited states in gaussian

0 1
Mg 0.00000 0.00000 0.00000
C -0.21700 -2.21800 2.80100
C -1.25500 2.44200 2.02600
C -0.24500 1.85000 -2.56400
C 0.14600 -2.82400 -2.03700
N -0.61700 -0.00900 2.12600
C -0.59400 -0.90800 3.10500
C -0.93600 -0.30900 4.50200
C -1.77300 0.96400 4.03200
C -1.15500 1.16800 2.66000
C -3.26300 0.68500 3.86300
C 0.34500 0.11000 5.29900
C 0.12400 0.39700 6.78700
H 1.16800 0.03300 7.73300
N -0.18500 1.96100 -0.15200
C -0.70300 2.80000 0.77700
C -0.62000 4.15600 0.19300
C -0.18700 4.01500 -1.22500
C -0.21400 2.58300 -1.38000
C -0.88700 5.40600 0.97400
C 0.18100 5.01300 -2.27700
O 0.30300 4.69000 -3.50800
C 0.31000 6.41400 -1.83700
N -0.26500 -0.41300 -2.02900
C -0.27900 0.56900 -2.93700
C -0.19600 0.02400 -4.33200
C 0.12400 -1.53300 -4.18000
C 0.08600 -1.63200 -2.63500
C -1.45100 0.20500 -5.19700
C 1.37300 -2.07000 -4.92300
C 2.62600 -1.49000 -4.30600
N 0.15000 -2.14400 0.30300
C 0.17300 -3.13600 -0.68800
C 0.17300 -4.43800 0.00400
C 0.13300 -4.11100 1.35800
C 0.08300 -2.69500 1.50200
C 0.14900 -5.71500 -0.62300
C 0.09600 -4.62900 2.71600
O 0.20800 -5.74700 3.22100
C -0.25500 -3.42800 3.70100
C 0.71700 -3.48200 4.84800
O 1.93100 -3.25500 4.66900
O 0.03800 -3.55600 6.00300
C 0.94300 -3.58300 7.18300
H -1.85900 3.22000 2.49700
H -0.21800 2.45300 -3.47400
H 0.27600 -3.74700 -2.60500
H -1.55400 -0.94900 5.13200
H -1.58500 1.83100 4.66500
H -3.48400 -0.37700 3.96900
H -3.51100 1.02700 2.85800
H -3.85200 1.30100 4.54300
H 0.66900 1.09600 4.96600
H 1.13000 -0.63900 5.18900
H -0.84400 0.02600 7.12500
H 0.06200 1.47700 6.92100
H -1.34400 5.18600 1.93800
H -1.65100 5.96300 0.43200
H 0.00700 6.02000 1.08400
H -0.63500 6.74400 -1.40500
H 0.66500 6.97000 -2.70400
H 1.04800 6.46600 -1.03600
H 0.60800 0.50100 -4.89100
H -0.69200 -2.15600 -4.54700
H -1.26700 0.74000 -6.12900
H -2.20400 0.71400 -4.59600
H -1.96700 -0.72000 -5.45300
H 1.35600 -1.75900 -5.96700
H 1.45200 -3.15700 -4.90200
H 2.71400 -0.52200 -4.79800
H 3.48700 -2.12100 -4.52900
H 2.49500 -1.30300 -3.24000
H 0.86700 -6.33300 -0.08400
H 0.40400 -5.64200 -1.68000
H -0.89100 -5.99900 -0.46300
H -1.28300 -3.58100 4.02800
H 0.69800 -4.47800 7.75500
H 0.83300 -2.61900 7.68000
H 2.00000 -3.75400 6.97600
Mg 10.51878 0.93923 0.79855
C 10.65709 0.02263 -2.66841
C 9.87859 -2.33984 1.48590
C 9.94556 1.78380 3.80280
C 10.03172 4.23181 -0.23461
N 10.31871 -0.83463 -0.50746
C 10.45257 -1.07263 -1.80353
C 10.44229 -2.57712 -2.18561
C 9.63188 -3.14131 -0.91920
C 9.98850 -2.06126 0.10011
C 8.12512 -3.13297 -1.11655
C 11.88701 -3.18476 -2.26019
C 11.97262 -4.56017 -2.92552
H 13.15086 -4.87218 -3.72980
N 10.47523 -0.15439 2.45404
C 10.22169 -1.47647 2.54949
C 10.28717 -1.79615 3.98395
C 10.43710 -0.52410 4.74165
C 10.26716 0.44051 3.67359
C 10.28803 -3.20410 4.50463
C 10.67899 -0.22505 6.19019
O 10.53734 0.95639 6.66661
C 10.99552 -1.37289 7.05260
N 9.84567 2.70642 1.66244
C 9.73391 2.82469 2.99715
C 9.49913 4.26107 3.39973
C 9.71847 5.12140 2.06958
C 9.96538 3.97497 1.06454
C 8.12150 4.57130 3.98478
C 10.75386 6.27702 2.14161
C 12.14620 5.71275 2.31004
N 10.55073 1.99967 -1.08361
C 10.29443 3.37235 -1.29372
C 10.31998 3.60164 -2.75290
C 10.56853 2.33204 -3.29588
C 10.66928 1.37523 -2.25001
C 10.08119 4.84471 -3.40396
C 10.75801 1.58186 -4.51654
O 10.86453 1.87271 -5.70726
C 10.69806 0.03149 -4.17136
C 11.86384 -0.63964 -4.84444
O 13.02957 -0.37632 -4.50041
O 11.40780 -1.63494 -5.62660
C 12.52788 -2.33787 -6.30714
H 9.44950 -3.29476 1.79071
H 9.84691 2.14853 4.82785
H 9.98608 5.24808 -0.63183
H 9.91103 -2.80977 -3.10072
H 10.01701 -4.10695 -0.60208
H 7.84158 -2.63732 -2.03311
H 7.71935 -2.60826 -0.26152
H 7.73180 -4.15196 -1.05931
H 12.21863 -3.44527 -1.24683
H 12.56122 -2.50605 -2.74539
H 11.05605 -4.81087 -3.47325
H 12.03399 -5.32078 -2.14339
H 10.00084 -3.92120 3.72573
H 9.48413 -3.27148 5.24562
H 11.23202 -3.47622 4.98159
H 10.18302 -2.09412 7.00652
H 11.22302 -0.94834 8.03233
H 11.88468 -1.87466 6.65481
H 10.21907 4.57645 4.14494
H 8.79295 5.62381 1.75203
H 8.16738 5.02222 4.99406
H 7.54446 3.65630 4.00298
H 7.49838 5.22535 3.37722
H 10.56397 6.90156 3.01799
H 10.73679 6.92701 1.27315
H 12.21252 5.53699 3.38791
H 12.89343 6.43193 1.98068
H 12.24009 4.74114 1.81122
H 10.82787 4.93750 -4.18135
H 10.12973 5.67604 -2.70374
H 9.06608 4.67893 -3.77457
H 9.74200 -0.34811 -4.53388
H 12.32069 -2.30412 -7.38121
H 12.58360 -3.33723 -5.83605
H 13.50770 -1.87665 -6.26617

