%nproc=24
%mem=175gb
#p cam-b3lyp/Def2SVP td=(nstates=5)

TDDFT excited states in gaussian

0 1
Mg 13.14494 1.19087 1.00073
C 12.65865 1.28768 4.55505
C 11.98057 4.39549 0.90439
C 13.13487 0.98672 -2.16560
C 13.17076 -2.28597 1.23867
N 12.44208 2.55821 2.59089
C 12.36031 2.50702 3.91189
C 12.01238 3.86045 4.58770
C 11.27803 4.56715 3.34666
C 11.96319 3.82393 2.20174
C 9.78829 4.27408 3.28254
C 13.29179 4.65566 5.02675
C 13.02559 5.83472 5.96522
H 14.00887 6.13453 7.00240
N 13.10497 2.61771 -0.37807
C 12.61666 3.86833 -0.24097
C 12.80303 4.51847 -1.54739
C 13.29040 3.49745 -2.51418
C 13.17325 2.29687 -1.71108
C 12.60031 5.99059 -1.75999
C 13.76904 3.58512 -3.93172
O 13.91922 2.53946 -4.65759
C 13.96725 4.93707 -4.47432
N 12.94023 -0.41134 -0.30822
C 13.02545 -0.23277 -1.63818
C 13.12451 -1.55501 -2.36085
C 13.33246 -2.65455 -1.21833
C 13.22358 -1.74847 0.02769
C 11.91876 -1.93567 -3.21973
C 14.57101 -3.58240 -1.35158
C 15.83896 -2.78071 -1.16454
N 13.13816 -0.25858 2.60294
C 13.12543 -1.66533 2.48050
C 13.00710 -2.22002 3.84459
C 12.93546 -1.08824 4.67068
C 12.98394 0.08873 3.87576
C 12.92993 -3.60196 4.17687
C 12.81913 -0.62159 6.03354
O 12.82584 -1.16018 7.13972
C 12.50738 0.93681 6.00922
C 13.42640 1.60974 6.99161
O 14.65532 1.62200 6.80130
O 12.69120 2.31088 7.87379
C 13.55869 3.00533 8.86223
H 11.41882 5.31448 0.73475
H 13.24046 0.85899 -3.24543
H 13.27054 -3.36067 1.40519
H 11.33339 3.78694 5.42874
H 11.50801 5.62859 3.30390
H 9.48999 3.54067 4.01688
H 9.60396 3.90459 2.28227
H 9.21727 5.20278 3.37076
H 13.69444 5.19354 4.15883
H 14.01585 3.99878 5.46818
H 12.01538 5.80262 6.39113
H 13.03960 6.75592 5.37768
H 12.08324 6.45235 -0.90980
H 11.90028 6.09960 -2.59541
H 13.52773 6.51234 -2.00564
H 13.03230 5.48948 -4.41795
H 14.39584 4.79321 -5.46804
H 14.68498 5.46745 -3.83856
H 13.98116 -1.57036 -3.02343
H 12.48769 -3.35735 -1.17060
H 12.17950 -2.12683 -4.27781
H 11.18395 -1.14500 -3.14603
H 11.36013 -2.80329 -2.87282
H 14.61863 -4.00845 -2.35675
H 14.56778 -4.41045 -0.65065
H 16.00804 -2.35132 -2.15656
H 16.66183 -3.42866 -0.86943
H 15.67973 -1.94920 -0.46820
H 13.57450 -3.75289 5.03258
H 13.22665 -4.22949 3.33905
H 11.86288 -3.69008 4.39803
H 11.45775 1.06513 6.27643
H 13.22577 2.69073 9.85615
H 13.48145 4.08255 8.62269
H 14.60585 2.72783 8.89227

