%nproc=24
%mem=175gb
#p cam-b3lyp/Def2SVP td=(nstates=5)

TDDFT excited states in gaussian

0 1
Mg 31.54014 2.84151 2.38843
C 31.02942 6.38740 2.17663
C 30.92404 2.70316 -0.96357
C 31.53846 -0.32295 2.62002
C 30.98655 3.10673 5.81901
N 31.05240 4.41048 0.90766
C 30.94574 5.73048 0.93128
C 30.81785 6.39058 -0.46782
C 30.22726 5.13339 -1.27376
C 30.79500 4.00450 -0.41588
C 28.71053 5.04954 -1.23067
C 32.20535 6.84231 -1.04469
C 32.12568 7.76758 -2.26094
H 33.13118 8.81682 -2.40432
N 31.75538 1.45126 0.98863
C 31.47919 1.57145 -0.32688
C 31.78801 0.26292 -0.92400
C 32.11233 -0.68863 0.17331
C 31.78728 0.12193 1.32978
C 31.83477 0.03596 -2.40715
C 32.61766 -2.09958 0.18036
O 32.60221 -2.81503 1.24372
C 33.04427 -2.64964 -1.11460
N 31.09028 1.54213 3.94778
C 31.22156 0.21223 3.79920
C 31.10983 -0.49864 5.12682
C 31.11759 0.65532 6.23403
C 31.14375 1.89254 5.30991
C 29.86921 -1.37226 5.31130
C 32.18700 0.54756 7.35537
C 33.56763 0.74710 6.77276
N 31.27209 4.45462 3.80054
C 31.02815 4.34291 5.18694
C 30.80146 5.70935 5.70061
C 30.90731 6.52550 4.56431
C 31.16063 5.72229 3.41968
C 30.49205 6.05115 7.04729
C 30.85179 7.88285 4.07112
O 30.75450 8.99314 4.59221
C 30.80282 7.84186 2.48294
C 31.80748 8.83247 1.96154
O 33.02387 8.66024 2.15476
O 31.18691 9.69823 1.13951
C 32.14424 10.69397 0.58829
H 30.52457 2.51813 -1.96110
H 31.63577 -1.40007 2.77435
H 30.90472 3.28302 6.89367
H 30.12495 7.22204 -0.51619
H 30.63041 5.08581 -2.28201
H 28.28514 5.78505 -0.56419
H 28.48085 4.04955 -0.88672
H 28.30010 5.12212 -2.24192
H 32.70303 5.97628 -1.49973
H 32.80468 7.29946 -0.28151
H 31.11855 8.17876 -2.40078
H 32.29989 7.17319 -3.16115
H 31.39008 0.87481 -2.95667
H 31.17363 -0.81053 -2.62209
H 32.83898 -0.20000 -2.76570
H 32.21307 -2.61138 -1.81467
H 33.45626 -3.63579 -0.89177
H 33.83142 -2.00748 -1.52525
H 31.96083 -1.14835 5.29042
H 30.16752 0.69600 6.78680
H 30.10871 -2.42486 5.55364
H 29.27460 -1.31555 4.40921
H 29.17002 -1.02693 6.07096
H 32.17674 -0.45347 7.79355
H 32.03736 1.25477 8.16435
H 33.81866 -0.24562 6.38730
H 34.26782 1.05934 7.54496
H 33.53910 1.43455 5.91938
H 31.09129 6.91743 7.29419
H 30.69183 5.22269 7.72370
H 29.42230 6.25720 6.95536
H 29.78549 8.09253 2.17998
H 31.75063 11.68527 0.83341
H 32.24968 10.44499 -0.48439
H 33.13047 10.74163 1.03497

