%nproc=24
%mem=175gb
#p cam-b3lyp/Def2SVP td=(nstates=5)

TDDFT excited states in gaussian

0 1
Mg 15.76829 1.42773 1.20391
C 17.13932 -0.20563 4.09034
C 13.32836 2.65917 3.24471
C 14.28530 2.50646 -1.38540
C 17.59181 -0.80551 -0.75394
N 15.39035 1.18763 3.36995
C 16.01337 0.59410 4.37688
C 15.44269 0.93817 5.77884
C 13.95446 1.35028 5.33816
C 14.23836 1.79547 3.90502
C 12.99323 0.17418 5.29140
C 16.19552 2.13881 6.45244
C 15.89885 2.32987 7.94148
H 16.97648 2.79127 8.81228
N 14.36164 2.81470 1.01365
C 13.47195 3.20519 1.95027
C 12.64086 4.23673 1.31044
C 13.00585 4.30591 -0.13064
C 13.90342 3.17251 -0.22994
C 11.67520 5.09400 2.07596
C 12.60257 5.23043 -1.23917
O 12.85682 4.96151 -2.46631
C 11.81945 6.41355 -0.85389
N 15.74728 0.79369 -0.77597
C 15.06049 1.47215 -1.71189
C 15.41372 0.99523 -3.10048
C 16.66491 0.01691 -2.91341
C 16.76678 0.02820 -1.37234
C 14.30398 0.26323 -3.85482
C 17.93956 0.33841 -3.74080
C 18.55567 1.63173 -3.25799
N 17.26341 -0.09080 1.55992
C 17.87576 -0.92648 0.60036
C 18.73816 -1.87429 1.33545
C 18.54847 -1.53654 2.68394
C 17.61705 -0.46788 2.78353
C 19.51829 -2.91273 0.75308
C 18.91626 -1.84806 4.04643
O 19.73251 -2.60160 4.57524
C 17.92396 -1.08384 5.02506
C 18.74713 -0.41362 6.09076
O 19.53043 0.50713 5.79874
O 18.31697 -0.81855 7.29962
C 19.09564 -0.17252 8.38963
H 12.39415 2.91091 3.74747
H 13.88615 2.91278 -2.31763
H 18.26773 -1.46865 -1.29805
H 15.40828 0.10621 6.47198
H 13.58370 2.18325 5.92982
H 13.49968 -0.76656 5.44842
H 12.54240 0.20164 4.30802
H 12.17589 0.32687 6.00202
H 15.79254 3.08059 6.05822
H 17.25450 2.05680 6.30258
H 15.39966 1.45612 8.37774
H 15.16984 3.13666 8.04934
H 11.50214 4.70175 3.08571
H 10.70332 5.00297 1.57894
H 11.96697 6.14628 2.09158
H 10.90704 6.09586 -0.35483
H 11.70326 6.99773 -1.76882
H 12.39459 6.99031 -0.12097
H 15.70778 1.82513 -3.73127
H 16.42197 -1.01554 -3.20473
H 14.05800 0.72791 -4.82829
H 13.42856 0.22375 -3.22029
H 14.49560 -0.79053 -4.04994
H 17.68056 0.49120 -4.79139
H 18.68754 -0.44657 -3.70438
H 17.97559 2.39393 -3.78681
H 19.60861 1.67886 -3.52844
H 18.38411 1.77275 -2.18452
H 20.48071 -2.89344 1.24692
H 19.61943 -2.77886 -0.32192
H 18.90356 -3.78174 1.00247
H 17.23967 -1.82411 5.44136
H 19.50313 -0.97616 9.01076
H 18.39840 0.53555 8.87567
H 19.99837 0.35957 8.11321

