%nproc=24
%mem=175gb
#p cam-b3lyp/Def2SVP td=(nstates=5)

TDDFT excited states in gaussian

0 1
Mg 15.77557 1.42402 1.19983
C 16.99423 -0.70195 3.82169
C 15.91752 4.00247 3.42830
C 14.28385 3.22712 -0.94284
C 14.66458 -1.45142 -0.42597
N 16.39370 1.51353 3.32166
C 16.89687 0.65462 4.19541
C 17.39419 1.29880 5.51726
C 16.48975 2.62556 5.49335
C 16.27773 2.74971 3.98593
C 15.13317 2.44111 6.15290
C 18.92388 1.64555 5.47467
C 19.54327 1.98974 6.83101
H 20.91979 1.57810 7.09216
N 15.63656 3.39853 1.05643
C 15.74195 4.29659 2.05827
C 15.54449 5.61598 1.43828
C 15.15043 5.41249 0.01771
C 14.98447 3.97305 -0.00621
C 15.80753 6.90355 2.16382
C 14.94322 6.35835 -1.12623
O 14.37078 5.98745 -2.21139
C 15.34575 7.75472 -0.90348
N 14.45363 0.97936 -0.34195
C 13.99467 1.94375 -1.15879
C 13.28315 1.35406 -2.35312
C 13.57143 -0.21780 -2.29198
C 14.35984 -0.27907 -0.96532
C 11.77455 1.59258 -2.41326
C 14.19893 -0.86789 -3.55542
C 15.60924 -0.35976 -3.75093
N 15.96767 -0.70657 1.50270
C 15.40167 -1.73429 0.71687
C 15.71470 -3.01480 1.38374
C 16.42697 -2.63877 2.53254
C 16.53178 -1.22267 2.58892
C 15.30720 -4.30475 0.94091
C 17.10484 -3.11723 3.71587
O 17.41139 -4.22568 4.15303
C 17.39292 -1.87829 4.66898
C 18.82514 -1.96297 5.12076
O 19.75412 -1.84007 4.30314
O 18.86401 -1.95703 6.46569
C 20.26426 -2.02839 6.96170
H 15.70781 4.83081 4.10561
H 13.84397 3.79603 -1.76523
H 14.43799 -2.39823 -0.92083
H 17.18503 0.72226 6.41036
H 17.03761 3.48395 5.87332
H 14.95415 1.41152 6.42502
H 14.40451 2.77212 5.42453
H 15.03419 3.11723 7.00695
H 19.05947 2.60415 4.95752
H 19.48135 0.85370 5.01335
H 18.89183 1.70436 7.66596
H 19.62106 3.07672 6.91117
H 15.92606 6.74067 3.24216
H 14.89914 7.50976 2.07892
H 16.64565 7.46164 1.74102
H 14.79965 8.15676 -0.05342
H 15.20379 8.25634 -1.86269
H 16.40742 7.77388 -0.63308
H 13.68611 1.74955 -3.27741
H 12.64853 -0.79554 -2.13605
H 11.44921 2.09765 -3.34230
H 11.48541 2.17004 -1.54523
H 11.16127 0.69892 -2.31098
H 13.63847 -0.57911 -4.44797
H 14.21369 -1.95214 -3.52122
H 15.45905 0.59157 -4.27006
H 16.18586 -1.05426 -4.35858
H 16.08484 -0.13852 -2.78837
H 16.16415 -4.95622 1.04927
H 14.95415 -4.27876 -0.08790
H 14.49791 -4.50692 1.64762
H 16.69554 -1.93925 5.50535
H 20.32161 -2.89020 7.63378
H 20.47772 -1.03442 7.39783
H 21.03893 -2.26876 6.24298

