%nproc=24
%mem=175gb
#p cam-b3lyp/Def2SVP td=(nstates=5)

TDDFT excited states in gaussian

0 1
Mg 7.87720 0.71371 0.60665
C 5.51212 -1.94168 1.09079
C 5.23042 2.73622 -0.12721
C 9.95409 2.94908 -0.26346
C 10.33781 -1.72908 0.25463
N 5.70019 0.33104 0.52649
C 4.91271 -0.70083 0.79005
C 3.39715 -0.36561 0.80653
C 3.42853 0.93597 -0.13356
C 4.86341 1.39036 0.12592
C 3.28952 0.61389 -1.61217
C 2.87663 -0.02186 2.24629
C 1.35334 0.01285 2.38814
H 0.76012 -0.44975 3.63976
N 7.63927 2.67150 0.38530
C 6.49099 3.32597 0.11253
C 6.84983 4.75017 0.02854
C 8.33121 4.86629 0.11072
C 8.70852 3.46807 0.05865
C 5.82495 5.84514 -0.03530
C 9.25596 6.04188 0.20585
O 10.51924 5.92113 0.02597
C 8.62857 7.35360 0.42325
N 9.81672 0.62370 -0.13667
C 10.51536 1.74578 -0.38319
C 11.96980 1.43609 -0.64609
C 12.15167 -0.11121 -0.28501
C 10.68715 -0.46583 0.05385
C 12.45562 1.68580 -2.07368
C 13.25635 -0.46793 0.74703
C 12.88130 0.06727 2.11022
N 7.98361 -1.43166 0.83933
C 9.10611 -2.25911 0.61708
C 8.65897 -3.65604 0.79340
C 7.29125 -3.54469 1.08569
C 6.90831 -2.17624 1.07127
C 9.46902 -4.81538 0.63252
C 6.08206 -4.27428 1.39270
O 5.81318 -5.45265 1.62264
C 4.84905 -3.27704 1.28511
C 3.99320 -3.46297 2.50801
O 4.42741 -3.16495 3.63462
O 2.73633 -3.75418 2.12609
C 1.84698 -3.93680 3.30402
H 4.49709 3.39514 -0.59299
H 10.73486 3.68661 -0.46328
H 11.06628 -2.54271 0.25811
H 2.75927 -1.12455 0.36962
H 2.72255 1.68792 0.20925
H 3.31124 -0.44991 -1.79656
H 4.12529 1.09937 -2.09883
H 2.38954 1.08504 -2.01761
H 3.11016 1.02691 2.47054
H 3.29191 -0.69374 2.97207
H 0.84887 -0.44817 1.53028
H 1.02615 1.05512 2.36308
H 4.82461 5.44793 -0.24730
H 6.06532 6.45742 -0.91120
H 5.83169 6.48069 0.85279
H 7.93221 7.55944 -0.38618
H 9.45510 8.05496 0.55297
H 8.03656 7.30992 1.34424
H 12.61283 2.02485 -0.00346
H 12.42272 -0.70679 -1.16912
H 13.31192 2.38432 -2.12742
H 11.62398 2.05812 -2.65703
H 12.74405 0.79315 -2.62612
H 14.19920 0.01218 0.47375
H 13.44777 -1.53301 0.82407
H 13.20918 1.11010 2.06468
H 13.40529 -0.47740 2.89305
H 11.79362 0.06936 2.24661
H 9.23285 -5.47685 1.45543
H 10.52699 -4.56202 0.61611
H 9.11588 -5.16653 -0.34075
H 4.31076 -3.51938 0.36800
H 1.38848 -4.92585 3.20789
H 1.16707 -3.06417 3.30316
H 2.31520 -4.01453 4.27828

