%nproc=24
%mem=175gb
#p cam-b3lyp/Def2SVP td=(nstates=5)

TDDFT excited states in gaussian

0 1
Mg 8.93525 0.81291 0.68481
C 10.53381 -0.60246 3.56932
C 6.38366 1.75164 2.74461
C 7.29872 1.66741 -1.89570
C 11.00214 -1.19603 -1.27422
N 8.61547 0.55201 2.85781
C 9.31970 0.05287 3.86244
C 8.72653 0.33858 5.26817
C 7.19333 0.55562 4.84264
C 7.40251 1.01655 3.40164
C 6.38698 -0.73226 4.81988
C 9.33029 1.63180 5.92013
C 9.02917 1.80109 7.41091
H 10.05028 2.40398 8.26317
N 7.36341 2.01014 0.49901
C 6.44258 2.29656 1.44311
C 5.48116 3.20829 0.80389
C 5.81793 3.30628 -0.64239
C 6.84955 2.29341 -0.74204
C 4.42436 3.94628 1.57328
C 5.28894 4.16018 -1.75469
O 5.56078 3.91132 -2.98229
C 4.36790 5.23999 -1.37105
N 8.97120 0.15871 -1.28828
C 8.19388 0.73490 -2.22193
C 8.58818 0.29027 -3.61017
C 9.95442 -0.52111 -3.42959
C 10.07184 -0.47955 -1.89015
C 7.57055 -0.58375 -4.34290
C 11.16896 -0.05166 -4.27646
C 11.62325 1.31418 -3.81441
N 10.61328 -0.50184 1.03651
C 11.31465 -1.26495 0.07743
C 12.29771 -2.08860 0.81067
C 12.08266 -1.76197 2.15809
C 11.02558 -0.81757 2.25912
C 13.19533 -3.02752 0.22858
C 12.50236 -2.00931 3.51874
O 13.41285 -2.64839 4.04441
C 11.43328 -1.36454 4.50248
C 12.17798 -0.58421 5.55082
O 12.83599 0.42416 5.23968
O 11.81607 -1.02611 6.76906
C 12.51994 -0.27508 7.84253
H 5.43110 1.88987 3.25686
H 6.84097 2.00978 -2.82668
H 11.74969 -1.77527 -1.82042
H 8.80490 -0.48316 5.96986
H 6.72773 1.34217 5.43078
H 7.00938 -1.60016 4.97963
H 5.92496 -0.77281 3.84216
H 5.56519 -0.67525 5.53942
H 8.80767 2.51101 5.52187
H 10.38938 1.68163 5.75747
H 8.64876 0.87665 7.86216
H 8.20588 2.51121 7.52019
H 4.31361 3.54695 2.58900
H 3.46594 3.72835 1.08975
H 4.58180 5.02696 1.57477
H 3.50845 4.81603 -0.85718
H 4.16870 5.79450 -2.29014
H 4.87445 5.89269 -0.65133
H 8.76836 1.14327 -4.25286
H 9.83976 -1.57914 -3.70755
H 7.25693 -0.16475 -5.31766
H 6.71441 -0.72554 -3.69679
H 7.89076 -1.60730 -4.53006
H 10.88072 0.05543 -5.32508
H 12.00999 -0.73611 -4.24193
H 10.94596 1.99148 -4.34321
H 12.65874 1.48998 -4.09884
H 11.44773 1.44479 -2.74027
H 14.15333 -2.88197 0.70977
H 13.26644 -2.89428 -0.84890
H 12.69755 -3.96390 0.49443
H 10.85225 -2.18004 4.93485
H 13.03229 -1.01410 8.46626
H 11.74493 0.34539 8.33050
H 13.34543 0.36290 7.54927

