%nproc=24
%mem=175gb
#p cam-b3lyp/Def2SVP td=(nstates=5)

TDDFT excited states in gaussian

0 1
Mg 0.00000 0.00000 0.00000
C -0.21700 -2.21800 2.80100
C -1.25500 2.44200 2.02600
C -0.24500 1.85000 -2.56400
C 0.14600 -2.82400 -2.03700
N -0.61700 -0.00900 2.12600
C -0.59400 -0.90800 3.10500
C -0.93600 -0.30900 4.50200
C -1.77300 0.96400 4.03200
C -1.15500 1.16800 2.66000
C -3.26300 0.68500 3.86300
C 0.34500 0.11000 5.29900
C 0.12400 0.39700 6.78700
H 1.16800 0.03300 7.73300
N -0.18500 1.96100 -0.15200
C -0.70300 2.80000 0.77700
C -0.62000 4.15600 0.19300
C -0.18700 4.01500 -1.22500
C -0.21400 2.58300 -1.38000
C -0.88700 5.40600 0.97400
C 0.18100 5.01300 -2.27700
O 0.30300 4.69000 -3.50800
C 0.31000 6.41400 -1.83700
N -0.26500 -0.41300 -2.02900
C -0.27900 0.56900 -2.93700
C -0.19600 0.02400 -4.33200
C 0.12400 -1.53300 -4.18000
C 0.08600 -1.63200 -2.63500
C -1.45100 0.20500 -5.19700
C 1.37300 -2.07000 -4.92300
C 2.62600 -1.49000 -4.30600
N 0.15000 -2.14400 0.30300
C 0.17300 -3.13600 -0.68800
C 0.17300 -4.43800 0.00400
C 0.13300 -4.11100 1.35800
C 0.08300 -2.69500 1.50200
C 0.14900 -5.71500 -0.62300
C 0.09600 -4.62900 2.71600
O 0.20800 -5.74700 3.22100
C -0.25500 -3.42800 3.70100
C 0.71700 -3.48200 4.84800
O 1.93100 -3.25500 4.66900
O 0.03800 -3.55600 6.00300
C 0.94300 -3.58300 7.18300
H -1.85900 3.22000 2.49700
H -0.21800 2.45300 -3.47400
H 0.27600 -3.74700 -2.60500
H -1.55400 -0.94900 5.13200
H -1.58500 1.83100 4.66500
H -3.48400 -0.37700 3.96900
H -3.51100 1.02700 2.85800
H -3.85200 1.30100 4.54300
H 0.66900 1.09600 4.96600
H 1.13000 -0.63900 5.18900
H -0.84400 0.02600 7.12500
H 0.06200 1.47700 6.92100
H -1.34400 5.18600 1.93800
H -1.65100 5.96300 0.43200
H 0.00700 6.02000 1.08400
H -0.63500 6.74400 -1.40500
H 0.66500 6.97000 -2.70400
H 1.04800 6.46600 -1.03600
H 0.60800 0.50100 -4.89100
H -0.69200 -2.15600 -4.54700
H -1.26700 0.74000 -6.12900
H -2.20400 0.71400 -4.59600
H -1.96700 -0.72000 -5.45300
H 1.35600 -1.75900 -5.96700
H 1.45200 -3.15700 -4.90200
H 2.71400 -0.52200 -4.79800
H 3.48700 -2.12100 -4.52900
H 2.49500 -1.30300 -3.24000
H 0.86700 -6.33300 -0.08400
H 0.40400 -5.64200 -1.68000
H -0.89100 -5.99900 -0.46300
H -1.28300 -3.58100 4.02800
H 0.69800 -4.47800 7.75500
H 0.83300 -2.61900 7.68000
H 2.00000 -3.75400 6.97600
Mg 15.77334 1.41598 1.20479
C 15.94290 -2.07080 0.37253
C 14.73908 0.47027 4.31453
C 15.18202 4.47029 1.82846
C 15.70362 2.08632 -2.21450
N 15.42493 -0.57324 2.10692
C 15.58174 -1.82847 1.71428
C 15.41599 -2.88098 2.84313
C 14.49775 -2.02076 3.84100
C 14.93419 -0.61720 3.42603
C 13.01057 -2.16067 3.56161
C 16.78432 -3.26444 3.50844
C 16.73953 -4.50629 4.40150
H 17.90548 -5.38502 4.43071
N 15.54112 2.35085 2.93991
C 15.13580 1.80977 4.10791
C 15.10823 2.91699 5.07613
C 15.37152 4.18616 4.34496
C 15.35411 3.71034 2.97625
C 14.92904 2.70377 6.55121
C 15.58868 5.59711 4.80132
O 15.56328 6.58159 3.98097
C 15.73895 5.80199 6.24940
N 15.27150 3.03058 -0.00500
C 15.12153 4.26229 0.51302
C 15.03547 5.30517 -0.57573
C 15.40299 4.54165 -1.93203
C 15.55762 3.10714 -1.38097
C 13.67998 5.99428 -0.73118
C 16.55907 5.13527 -2.78278
C 17.87077 4.98710 -2.04599
N 15.99919 0.26631 -0.61051
C 15.90860 0.74073 -1.93746
C 16.01726 -0.43308 -2.82785
C 16.14142 -1.52017 -1.94962
C 16.09191 -1.05878 -0.60642
C 15.94667 -0.40833 -4.24931
C 16.29243 -2.95426 -1.85330
O 16.47790 -3.86436 -2.66019
C 16.04360 -3.38841 -0.34466
C 17.15132 -4.32271 0.05854
O 18.32497 -3.91775 0.13043
O 16.61646 -5.47549 0.50056
C 17.67549 -6.43060 0.92252
H 14.19287 0.29160 5.24115
H 15.08518 5.54700 1.98598
H 15.78911 2.22232 -3.29471
H 14.89813 -3.78574 2.54817
H 14.75818 -2.20971 4.87919
H 12.82125 -2.72455 2.66031
H 12.63363 -1.15114 3.46250
H 12.50233 -2.58817 4.43067
H 17.04422 -2.50438 4.25644
H 17.54966 -3.38075 2.76590
H 15.82267 -5.08917 4.25127
H 16.68352 -4.18245 5.44361
H 14.59323 1.68309 6.77223
H 14.09421 3.33875 6.86699
H 15.81664 2.97480 7.12687
H 14.85236 5.43378 6.76014
H 15.97445 6.86096 6.37183
H 16.58043 5.19580 6.60304
H 15.75669 6.09631 -0.41131
H 14.55358 4.52011 -2.63051
H 13.73702 7.09535 -0.63920
H 13.00267 5.58562 0.00691
H 13.15936 5.78415 -1.66392
H 16.40693 6.20689 -2.93323
H 16.64991 4.68198 -3.76424
H 17.87436 5.84945 -1.37262
H 18.70707 5.02562 -2.74109
H 17.87344 4.08386 -1.42486
H 16.72901 -1.06209 -4.61131
H 16.06161 0.60230 -4.63555
H 14.93466 -0.79314 -4.40105
H 15.06565 -3.86916 -0.29916
H 17.51580 -7.35451 0.35810
H 17.59903 -6.49380 2.02430
H 18.69891 -6.19406 0.65585

