%nproc=24
%mem=175gb
#p cam-b3lyp/Def2SVP td=(nstates=5)

TDDFT excited states in gaussian

0 1
Mg 8.92901 0.79834 0.68570
C 7.72191 3.30636 2.95104
C 10.59492 -0.57304 3.32741
C 10.36533 -1.15442 -1.36153
C 8.13055 2.96773 -1.92235
N 9.06248 1.38194 2.81498
C 8.51152 2.31735 3.57379
C 8.75875 2.13902 5.09584
C 10.10440 1.26588 5.02020
C 9.89954 0.61914 3.65183
C 11.36705 2.10971 4.96544
C 7.60060 1.34947 5.80105
C 7.62204 1.40576 7.33014
H 6.34819 1.43927 8.04333
N 9.87555 -0.91805 0.99655
C 10.47410 -1.32238 2.13652
C 11.04251 -2.64742 1.84439
C 10.87308 -2.92053 0.39132
C 10.37250 -1.63810 -0.06132
C 11.59835 -3.54724 2.90965
C 11.13234 -4.13102 -0.45349
O 11.13835 -4.06992 -1.73374
C 11.47109 -5.36972 0.26231
N 9.40561 0.97168 -1.33052
C 9.98213 -0.04548 -1.99455
C 9.97793 0.20342 -3.48399
C 9.05817 1.49351 -3.70140
C 8.74874 1.83502 -2.22729
C 11.34621 0.44074 -4.12265
C 7.87047 1.35217 -4.69240
C 6.84021 0.39909 -4.13064
N 7.91509 2.69686 0.49691
C 7.71340 3.44229 -0.68535
C 7.07769 4.71688 -0.29327
C 6.97378 4.63361 1.10343
C 7.52546 3.40327 1.55220
C 6.72587 5.77701 -1.17558
C 6.53251 5.31136 2.30119
O 5.91115 6.34739 2.53420
C 7.11200 4.53708 3.56256
C 5.99059 4.34811 4.54706
O 5.01771 3.62623 4.26599
O 6.35241 4.87107 5.73280
C 5.27690 4.69827 6.74535
H 11.33560 -0.95007 4.03320
H 10.74969 -1.83885 -2.12133
H 7.76124 3.65520 -2.68633
H 8.94262 3.05935 5.63708
H 10.12850 0.50901 5.79989
H 11.14455 3.16182 4.86694
H 11.91914 1.75748 4.10394
H 11.99816 1.90058 5.83395
H 7.75724 0.27359 5.65043
H 6.64378 1.67412 5.44088
H 8.29274 2.18872 7.70443
H 8.05851 0.47699 7.70549
H 11.74039 -3.01050 3.85577
H 12.61195 -3.82261 2.59877
H 11.00957 -4.45753 3.04151
H 12.35979 -5.20580 0.86713
H 11.53300 -6.14333 -0.50551
H 10.65712 -5.60633 0.95664
H 9.54065 -0.63340 -4.01468
H 9.63243 2.33981 -4.10617
H 11.57411 -0.26696 -4.94198
H 12.09934 0.38113 -3.34820
H 11.50274 1.44192 -4.52055
H 8.21328 0.91834 -5.63496
H 7.38998 2.29586 -4.92813
H 7.23567 -0.58285 -4.40722
H 5.86738 0.57513 -4.58524
H 6.81469 0.44772 -3.03582
H 5.74284 6.11672 -0.87770
H 6.73703 5.45074 -2.21346
H 7.52987 6.48562 -0.95939
H 7.92105 5.14141 3.97464
H 5.04432 5.69321 7.13737
H 5.66101 3.95062 7.46454
H 4.30373 4.37698 6.39298

