%nproc=24
%mem=175gb
#p cam-b3lyp/Def2SVP td=(nstates=5)

TDDFT excited states in gaussian

0 1
Mg 0.00000 0.00000 0.00000
C -0.21700 -2.21800 2.80100
C -1.25500 2.44200 2.02600
C -0.24500 1.85000 -2.56400
C 0.14600 -2.82400 -2.03700
N -0.61700 -0.00900 2.12600
C -0.59400 -0.90800 3.10500
C -0.93600 -0.30900 4.50200
C -1.77300 0.96400 4.03200
C -1.15500 1.16800 2.66000
C -3.26300 0.68500 3.86300
C 0.34500 0.11000 5.29900
C 0.12400 0.39700 6.78700
H 1.16800 0.03300 7.73300
N -0.18500 1.96100 -0.15200
C -0.70300 2.80000 0.77700
C -0.62000 4.15600 0.19300
C -0.18700 4.01500 -1.22500
C -0.21400 2.58300 -1.38000
C -0.88700 5.40600 0.97400
C 0.18100 5.01300 -2.27700
O 0.30300 4.69000 -3.50800
C 0.31000 6.41400 -1.83700
N -0.26500 -0.41300 -2.02900
C -0.27900 0.56900 -2.93700
C -0.19600 0.02400 -4.33200
C 0.12400 -1.53300 -4.18000
C 0.08600 -1.63200 -2.63500
C -1.45100 0.20500 -5.19700
C 1.37300 -2.07000 -4.92300
C 2.62600 -1.49000 -4.30600
N 0.15000 -2.14400 0.30300
C 0.17300 -3.13600 -0.68800
C 0.17300 -4.43800 0.00400
C 0.13300 -4.11100 1.35800
C 0.08300 -2.69500 1.50200
C 0.14900 -5.71500 -0.62300
C 0.09600 -4.62900 2.71600
O 0.20800 -5.74700 3.22100
C -0.25500 -3.42800 3.70100
C 0.71700 -3.48200 4.84800
O 1.93100 -3.25500 4.66900
O 0.03800 -3.55600 6.00300
C 0.94300 -3.58300 7.18300
H -1.85900 3.22000 2.49700
H -0.21800 2.45300 -3.47400
H 0.27600 -3.74700 -2.60500
H -1.55400 -0.94900 5.13200
H -1.58500 1.83100 4.66500
H -3.48400 -0.37700 3.96900
H -3.51100 1.02700 2.85800
H -3.85200 1.30100 4.54300
H 0.66900 1.09600 4.96600
H 1.13000 -0.63900 5.18900
H -0.84400 0.02600 7.12500
H 0.06200 1.47700 6.92100
H -1.34400 5.18600 1.93800
H -1.65100 5.96300 0.43200
H 0.00700 6.02000 1.08400
H -0.63500 6.74400 -1.40500
H 0.66500 6.97000 -2.70400
H 1.04800 6.46600 -1.03600
H 0.60800 0.50100 -4.89100
H -0.69200 -2.15600 -4.54700
H -1.26700 0.74000 -6.12900
H -2.20400 0.71400 -4.59600
H -1.96700 -0.72000 -5.45300
H 1.35600 -1.75900 -5.96700
H 1.45200 -3.15700 -4.90200
H 2.71400 -0.52200 -4.79800
H 3.48700 -2.12100 -4.52900
H 2.49500 -1.30300 -3.24000
H 0.86700 -6.33300 -0.08400
H 0.40400 -5.64200 -1.68000
H -0.89100 -5.99900 -0.46300
H -1.28300 -3.58100 4.02800
H 0.69800 -4.47800 7.75500
H 0.83300 -2.61900 7.68000
H 2.00000 -3.75400 6.97600
Mg 7.87704 0.71620 0.60456
C 10.08295 1.48897 3.32777
C 5.71755 -0.56461 2.91340
C 6.11726 -0.38162 -1.79656
C 10.62658 0.99308 -1.51889
N 7.99692 0.54259 2.80632
C 8.85620 0.92676 3.73820
C 8.33981 0.76908 5.19355
C 7.25131 -0.38382 4.93889
C 6.93655 -0.10288 3.47101
C 7.82504 -1.78706 5.04427
C 7.67104 2.08079 5.73591
C 7.42308 2.09932 7.24585
H 7.56641 3.36541 7.95926
N 5.98123 0.13065 0.56467
C 5.25312 -0.34036 1.59873
C 3.92508 -0.65081 1.04729
C 3.97892 -0.47973 -0.43006
C 5.39777 -0.25211 -0.61753
C 2.74373 -0.98647 1.91053
C 2.92930 -0.52746 -1.49881
O 3.23622 -0.58741 -2.74180
C 1.53299 -0.59619 -1.04376
N 8.34280 0.14881 -1.34055
C 7.38148 -0.24146 -2.19582
C 7.91162 -0.33467 -3.60672
C 9.37430 0.31024 -3.55957
C 9.47610 0.59617 -2.04521
C 7.99549 -1.74331 -4.19415
C 9.66465 1.46948 -4.55180
C 8.84156 2.68274 -4.18314
N 9.93733 1.33659 0.80049
C 10.92357 1.35103 -0.21006
C 12.19687 1.74054 0.42981
C 11.86519 1.90461 1.78316
C 10.48712 1.61668 1.97682
C 13.45658 1.85115 -0.22365
C 12.36982 2.24560 3.09380
O 13.44203 2.66196 3.53054
C 11.26628 1.86890 4.17394
C 11.11305 3.03754 5.10845
O 10.66504 4.12195 4.69622
O 11.31361 2.62064 6.37192
C 11.16144 3.74205 7.33684
H 5.07235 -1.19459 3.52637
H 5.53207 -0.65106 -2.67885
H 11.50855 1.19689 -2.12984
H 9.08274 0.42846 5.90476
H 6.36735 -0.23520 5.55362
H 8.89898 -1.77583 5.15680
H 7.54598 -2.28862 4.12687
H 7.33101 -2.33674 5.85056
H 6.63571 2.13053 5.37486
H 8.24101 2.94425 5.45269
H 7.97093 1.30245 7.76334
H 6.37173 1.86354 7.42778
H 3.04737 -1.19844 2.94313
H 2.34070 -1.93728 1.54530
H 1.95884 -0.22857 1.86356
H 1.39825 -1.47936 -0.42383
H 0.92695 -0.53244 -1.94959
H 1.33014 0.27064 -0.40495
H 7.29665 0.23860 -4.28957
H 10.15371 -0.43004 -3.79269
H 7.43025 -1.85679 -5.13845
H 7.63951 -2.44469 -3.45126
H 9.00441 -2.10375 -4.38745
H 9.36405 1.18625 -5.56352
H 10.71178 1.75014 -4.59366
H 7.87416 2.47596 -4.65055
H 9.29025 3.58754 -4.58816
H 8.68004 2.73446 -3.10013
H 13.91800 2.75910 0.14134
H 13.34301 1.86914 -1.30557
H 13.93762 0.93276 0.12337
H 11.60796 0.97220 4.69237
H 12.08688 3.79041 7.91901
H 10.22747 3.53390 7.89192
H 11.11236 4.74685 6.93383

