%nproc=24
%mem=175gb
#p cam-b3lyp/Def2SVP td=(nstates=5)

TDDFT excited states in gaussian

0 1
Mg 8.93331 0.80674 0.66839
C 11.03606 -1.70094 -0.80438
C 10.99411 3.14030 -0.72524
C 7.37257 3.02430 2.31580
C 7.75310 -1.65391 2.83589
N 10.74768 0.62000 -0.58279
C 11.41791 -0.38279 -1.13011
C 12.51099 0.05120 -2.14321
C 12.77295 1.53683 -1.59261
C 11.41118 1.80489 -0.95512
C 13.83057 1.59706 -0.50305
C 11.98270 0.07098 -3.62056
C 13.07038 0.18439 -4.69100
H 12.88069 -0.52398 -5.95382
N 8.83666 2.77147 0.40561
C 9.75054 3.55714 -0.20170
C 9.22236 4.92759 -0.11758
C 8.00170 4.90843 0.73350
C 8.03550 3.54100 1.21213
C 9.82314 6.07883 -0.87066
C 6.98089 5.95223 1.07209
O 6.13540 5.78447 2.02068
C 7.06037 7.21445 0.32244
N 7.89379 0.75550 2.46815
C 7.26316 1.84801 2.93361
C 6.35902 1.50349 4.09302
C 6.32915 -0.09429 4.15452
C 7.33590 -0.40982 3.02656
C 6.78174 2.05709 5.45361
C 4.93331 -0.77429 4.11098
C 4.29766 -0.56165 2.75595
N 9.16462 -1.33222 0.86695
C 8.60249 -2.16228 1.86148
C 9.13821 -3.52228 1.64736
C 9.99949 -3.38321 0.54857
C 10.01600 -2.02790 0.12153
C 8.85142 -4.66471 2.44656
C 10.90662 -4.07267 -0.34052
O 11.22621 -5.24786 -0.51518
C 11.71527 -2.98958 -1.17681
C 11.68775 -3.40372 -2.62258
O 10.61659 -3.42342 -3.25412
O 12.95028 -3.49748 -3.07819
C 12.97483 -3.89492 -4.51111
H 11.70085 3.94623 -0.92494
H 6.73159 3.72745 2.85265
H 7.35853 -2.49613 3.40829
H 13.42566 -0.52787 -2.10040
H 12.95655 2.23314 -2.40674
H 14.14812 0.61199 -0.19491
H 13.37127 2.12246 0.32402
H 14.66998 2.21924 -0.82647
H 11.44688 1.01259 -3.79664
H 11.36989 -0.78708 -3.81757
H 14.07001 -0.01385 -4.28555
H 13.11885 1.22277 -5.02781
H 10.80803 5.82179 -1.27971
H 10.03036 6.86666 -0.13836
H 9.15410 6.47584 -1.63709
H 8.03905 7.66351 0.47407
H 6.19501 7.79870 0.64131
H 6.97862 6.99176 -0.74730
H 5.35354 1.86739 3.92074
H 6.77227 -0.47452 5.08667
H 6.00336 2.68117 5.93186
H 7.69520 2.62205 5.32340
H 7.07621 1.30735 6.18599
H 4.26494 -0.31425 4.84297
H 4.96377 -1.83721 4.32606
H 3.85097 0.43303 2.84626
H 3.53980 -1.31883 2.56526
H 5.05814 -0.51118 1.96805
H 8.68294 -5.48746 1.76451
H 7.98850 -4.49528 3.08721
H 9.77953 -4.73992 3.01946
H 12.73031 -2.95939 -0.77886
H 13.59584 -4.79318 -4.58293
H 13.31779 -2.99995 -5.06353
H 12.04747 -4.24323 -4.95058

