%nproc=24
%mem=175gb
#p cam-b3lyp/Def2SVP td=(nstates=5)

TDDFT excited states in gaussian

0 1
Mg 0.00000 0.00000 0.00000
C -0.21700 -2.21800 2.80100
C -1.25500 2.44200 2.02600
C -0.24500 1.85000 -2.56400
C 0.14600 -2.82400 -2.03700
N -0.61700 -0.00900 2.12600
C -0.59400 -0.90800 3.10500
C -0.93600 -0.30900 4.50200
C -1.77300 0.96400 4.03200
C -1.15500 1.16800 2.66000
C -3.26300 0.68500 3.86300
C 0.34500 0.11000 5.29900
C 0.12400 0.39700 6.78700
H 1.16800 0.03300 7.73300
N -0.18500 1.96100 -0.15200
C -0.70300 2.80000 0.77700
C -0.62000 4.15600 0.19300
C -0.18700 4.01500 -1.22500
C -0.21400 2.58300 -1.38000
C -0.88700 5.40600 0.97400
C 0.18100 5.01300 -2.27700
O 0.30300 4.69000 -3.50800
C 0.31000 6.41400 -1.83700
N -0.26500 -0.41300 -2.02900
C -0.27900 0.56900 -2.93700
C -0.19600 0.02400 -4.33200
C 0.12400 -1.53300 -4.18000
C 0.08600 -1.63200 -2.63500
C -1.45100 0.20500 -5.19700
C 1.37300 -2.07000 -4.92300
C 2.62600 -1.49000 -4.30600
N 0.15000 -2.14400 0.30300
C 0.17300 -3.13600 -0.68800
C 0.17300 -4.43800 0.00400
C 0.13300 -4.11100 1.35800
C 0.08300 -2.69500 1.50200
C 0.14900 -5.71500 -0.62300
C 0.09600 -4.62900 2.71600
O 0.20800 -5.74700 3.22100
C -0.25500 -3.42800 3.70100
C 0.71700 -3.48200 4.84800
O 1.93100 -3.25500 4.66900
O 0.03800 -3.55600 6.00300
C 0.94300 -3.58300 7.18300
H -1.85900 3.22000 2.49700
H -0.21800 2.45300 -3.47400
H 0.27600 -3.74700 -2.60500
H -1.55400 -0.94900 5.13200
H -1.58500 1.83100 4.66500
H -3.48400 -0.37700 3.96900
H -3.51100 1.02700 2.85800
H -3.85200 1.30100 4.54300
H 0.66900 1.09600 4.96600
H 1.13000 -0.63900 5.18900
H -0.84400 0.02600 7.12500
H 0.06200 1.47700 6.92100
H -1.34400 5.18600 1.93800
H -1.65100 5.96300 0.43200
H 0.00700 6.02000 1.08400
H -0.63500 6.74400 -1.40500
H 0.66500 6.97000 -2.70400
H 1.04800 6.46600 -1.03600
H 0.60800 0.50100 -4.89100
H -0.69200 -2.15600 -4.54700
H -1.26700 0.74000 -6.12900
H -2.20400 0.71400 -4.59600
H -1.96700 -0.72000 -5.45300
H 1.35600 -1.75900 -5.96700
H 1.45200 -3.15700 -4.90200
H 2.71400 -0.52200 -4.79800
H 3.48700 -2.12100 -4.52900
H 2.49500 -1.30300 -3.24000
H 0.86700 -6.33300 -0.08400
H 0.40400 -5.64200 -1.68000
H -0.89100 -5.99900 -0.46300
H -1.28300 -3.58100 4.02800
H 0.69800 -4.47800 7.75500
H 0.83300 -2.61900 7.68000
H 2.00000 -3.75400 6.97600
Mg 10.51781 0.94371 0.80602
C 10.66047 -2.62142 0.42063
C 9.44062 0.40582 3.99741
C 9.95122 4.05731 1.03382
C 10.49161 1.17924 -2.67098
N 10.13935 -0.91310 1.94676
C 10.28746 -2.20907 1.71688
C 10.09883 -3.10973 2.96700
C 9.17882 -2.12276 3.83784
C 9.63407 -0.78645 3.25500
C 7.69336 -2.28355 3.56053
C 11.45595 -3.41854 3.69148
C 11.38884 -4.53776 4.73292
H 12.54533 -5.41611 4.88623
N 10.27661 2.09141 2.40702
C 9.85327 1.70513 3.62884
C 9.82669 2.92555 4.44984
C 10.11082 4.09029 3.56816
C 10.10318 3.44628 2.26998
C 9.62952 2.90113 5.93778
C 10.33754 5.54546 3.84615
O 10.33104 6.41913 2.90833
C 10.47438 5.92951 5.25869
N 10.04556 2.39769 -0.60297
C 9.90270 3.68605 -0.24568
C 9.83902 4.58443 -1.45780
C 10.21319 3.65316 -2.70292
C 10.34718 2.29805 -1.97415
C 8.49242 5.26047 -1.71477
C 11.38435 4.12483 -3.60768
C 12.68650 4.05892 -2.84252
N 10.75127 -0.42711 -0.84758
C 10.67978 -0.12258 -2.22462
C 10.78593 -1.39996 -2.95908
C 10.88950 -2.36902 -1.94978
C 10.83034 -1.74193 -0.67590
C 10.73083 -1.55358 -4.37311
C 11.02474 -3.78088 -1.67221
O 11.20950 -4.78684 -2.35606
C 10.75532 -4.01962 -0.12405
C 11.84901 -4.90553 0.40654
O 13.02591 -4.50513 0.44096
O 11.29764 -5.98879 0.98352
C 12.34222 -6.89256 1.53476
H 8.88271 0.34995 4.93256
H 9.86375 5.14609 1.05362
H 10.59007 1.17754 -3.75863
H 9.57490 -4.03980 2.78192
H 9.42616 -2.18192 4.89457
H 7.50794 -2.95462 2.73505
H 7.32789 -1.29121 3.33085
H 7.17148 -2.59384 4.47030
H 11.71560 -2.57276 4.34108
H 12.22796 -3.63408 2.97862
H 10.46771 -5.12678 4.64622
H 11.32499 -4.08494 5.72534
H 9.28090 1.91937 6.28129
H 8.79792 3.57814 6.16128
H 10.51364 3.23456 6.48535
H 9.57864 5.63632 5.80105
H 10.71942 6.99335 5.24987
H 11.30575 5.36521 5.69571
H 10.56652 5.38357 -1.38551
H 9.37113 3.55145 -3.40323
H 8.55976 6.36382 -1.76121
H 7.80308 4.95388 -0.93929
H 7.97969 4.93929 -2.61984
H 11.24484 5.17032 -3.89341
H 11.48105 3.55090 -4.52324
H 12.69172 4.99905 -2.28287
H 13.53054 4.00231 -3.52694
H 12.67323 3.24098 -2.11282
H 11.51025 -2.25456 -4.64074
H 10.86027 -0.60061 -4.88191
H 9.71661 -1.94546 -4.48735
H 9.77206 -4.48216 -0.03015
H 12.17912 -7.87868 1.08906
H 12.25331 -6.81600 2.63476
H 13.37082 -6.70049 1.25270

