%nproc=24
%mem=175gb
#p cam-b3lyp/Def2SVP td=(nstates=5)

TDDFT excited states in gaussian

0 1
Mg 15.76062 1.42160 1.18897
C 16.78028 -1.25138 -0.97772
C 16.99134 3.58319 -1.14501
C 15.28679 3.77520 3.26346
C 15.66823 -0.90289 3.78396
N 16.73548 1.08810 -0.76824
C 17.01407 0.03111 -1.51624
C 17.49985 0.36875 -2.95136
C 18.05910 1.84835 -2.67405
C 17.18736 2.21856 -1.47584
C 19.51279 1.86917 -2.23169
C 16.32540 0.38423 -3.99177
C 16.76488 0.40094 -5.45749
H 15.95865 -0.32604 -6.43420
N 15.63426 3.38114 0.90120
C 16.17442 4.09141 -0.11124
C 15.81236 5.49433 0.14353
C 15.15474 5.57449 1.47613
C 15.35617 4.22037 1.95138
C 16.02411 6.58546 -0.86544
C 14.47050 6.68931 2.20770
O 14.18167 6.59989 3.45326
C 14.23274 7.92434 1.44635
N 15.71803 1.48252 3.26667
C 15.43844 2.62442 3.91922
C 15.19244 2.36778 5.38688
C 15.12684 0.77722 5.53980
C 15.44921 0.36965 4.08537
C 16.24300 2.92805 6.34541
C 13.85549 0.18632 6.20850
C 12.65453 0.40415 5.31651
N 15.96622 -0.72194 1.36506
C 15.91874 -1.48893 2.54978
C 16.22508 -2.88522 2.17704
C 16.45398 -2.82928 0.79393
C 16.32091 -1.48912 0.34032
C 16.31062 -3.98632 3.07503
C 16.78834 -3.59746 -0.38369
O 16.93269 -4.79466 -0.62784
C 17.13879 -2.58965 -1.56178
C 16.39881 -3.03805 -2.79217
O 15.15615 -3.00586 -2.82923
O 17.27910 -3.22342 -3.79272
C 16.59159 -3.65814 -5.03778
H 17.54798 4.33725 -1.70217
H 15.01576 4.53113 4.00412
H 15.56299 -1.70344 4.51929
H 18.29549 -0.26593 -3.32271
H 17.85678 2.51055 -3.51186
H 19.89666 0.87413 -2.06231
H 19.53308 2.44366 -1.31485
H 20.11778 2.42832 -2.95117
H 15.81248 1.35315 -3.93836
H 15.65713 -0.43795 -3.82425
H 17.82639 0.15006 -5.57241
H 16.68962 1.42518 -5.83068
H 16.67696 6.25603 -1.68315
H 16.59299 7.37702 -0.36576
H 15.08608 7.00441 -1.23591
H 15.18140 8.31410 1.08499
H 13.65506 8.57032 2.11034
H 13.63515 7.68000 0.56103
H 14.24554 2.79026 5.69994
H 15.94799 0.39359 6.16301
H 15.82007 3.61233 7.10500
H 17.00357 3.43036 5.76252
H 16.82169 2.18011 6.88477
H 13.64417 0.70644 7.14604
H 13.93995 -0.87054 6.43850
H 12.35048 1.42717 5.55748
H 11.86682 -0.30802 5.55393
H 12.94151 0.38606 4.25870
H 15.79837 -4.81390 2.60258
H 15.87247 -3.74611 4.04151
H 17.39575 -4.10563 3.13452
H 18.22004 -2.61380 -1.70278
H 17.06122 -4.59556 -5.35143
H 16.66361 -2.80118 -5.73361
H 15.55321 -3.95800 -4.95837

