%nproc=24
%mem=175gb
#p cam-b3lyp/Def2SVP td=(nstates=5)

TDDFT excited states in gaussian

0 1
Mg 8.94098 0.81221 0.67654
C 8.32542 3.00125 3.45292
C 7.98217 3.37288 -1.36265
C 9.03993 -1.22083 -1.75746
C 8.74195 -1.85328 2.91288
N 8.26369 2.87314 1.10796
C 8.12822 3.61367 2.19773
C 7.83919 5.11404 1.92400
C 7.19831 4.97197 0.45840
C 7.87954 3.67784 0.01814
C 5.69683 4.73855 0.47817
C 9.14764 5.97963 1.89732
C 8.91922 7.49207 1.94337
H 9.87862 8.31908 2.67005
N 9.04259 1.15083 -1.27630
C 8.62787 2.25417 -1.93351
C 8.90426 2.00262 -3.35636
C 9.36415 0.59490 -3.50314
C 9.14200 0.10341 -2.15809
C 8.80156 3.07047 -4.40640
C 9.90142 -0.18406 -4.66537
O 10.01424 -1.46021 -4.62619
C 10.20380 0.58109 -5.88381
N 8.68774 -1.24736 0.54853
C 8.83490 -1.89049 -0.62307
C 8.87945 -3.38651 -0.42227
C 8.97476 -3.60509 1.15909
C 8.87449 -2.13572 1.62415
C 7.68631 -4.16741 -0.97272
C 10.15758 -4.46633 1.68050
C 11.46469 -3.74392 1.44604
N 8.78276 0.58849 2.81966
C 8.68752 -0.61842 3.54656
C 8.48269 -0.25770 4.96443
C 8.44969 1.14494 4.96078
C 8.60159 1.62409 3.63155
C 8.30725 -1.17447 6.03908
C 8.31026 2.32893 5.77774
O 8.24105 2.54701 6.98661
C 8.09692 3.58049 4.82145
C 9.01749 4.67796 5.28039
O 10.25120 4.54182 5.20280
O 8.29384 5.78446 5.53012
C 9.16411 6.90429 5.97782
H 7.48543 4.02965 -2.07734
H 9.17880 -1.96405 -2.54602
H 8.76841 -2.62485 3.68532
H 7.12513 5.56970 2.59948
H 7.49515 5.79682 -0.18415
H 5.32562 4.58837 1.48106
H 5.52850 3.85518 -0.12380
H 5.18153 5.55558 -0.03492
H 9.61592 5.89035 0.90865
H 9.81207 5.69028 2.68817
H 7.89335 7.74524 2.23738
H 9.01290 7.88820 0.92931
H 8.28184 3.95895 -4.02708
H 8.14225 2.68460 -5.19144
H 9.76830 3.32100 -4.84834
H 9.30344 1.08571 -6.22612
H 10.66050 -0.13319 -6.57163
H 10.92808 1.36451 -5.63424
H 9.75833 -3.81343 -0.88964
H 8.08682 -4.12078 1.55339
H 7.97515 -4.95323 -1.69600
H 6.99966 -3.46583 -1.42751
H 7.06202 -4.64739 -0.22099
H 10.21727 -5.40459 1.12349
H 10.07608 -4.72068 2.73200
H 11.69806 -3.98756 0.40524
H 12.23384 -4.11513 2.12031
H 11.33070 -2.65772 1.50825
H 8.90786 -0.80893 6.86136
H 8.59645 -2.18336 5.75223
H 7.22908 -1.08577 6.19706
H 7.04779 3.87052 4.89057
H 8.77438 7.24616 6.94162
H 9.16309 7.63417 5.14655
H 10.19011 6.66938 6.23588

