%nproc=24
%mem=175gb
#p cam-b3lyp/Def2SVP td=(nstates=5)

TDDFT excited states in gaussian

0 1
Mg 13.13892 1.18535 0.98776
C 15.44592 -1.27772 -0.23292
C 15.32397 3.56136 -0.11437
C 11.35191 3.36358 2.44698
C 11.73226 -1.31465 2.96691
N 15.09832 1.03659 -0.02756
C 15.84637 0.04892 -0.49581
C 17.05139 0.50858 -1.35964
C 17.22064 1.99134 -0.76664
C 15.78595 2.23423 -0.30258
C 18.13236 2.05348 0.44754
C 16.71221 0.53777 -2.89134
C 17.92371 0.67748 -3.81574
H 17.90411 -0.01927 -5.09895
N 13.04739 3.15142 0.73333
C 14.01866 3.95584 0.25288
C 13.46423 5.31814 0.28288
C 12.14693 5.27336 0.97384
C 12.14036 3.90126 1.44010
C 14.13785 6.48555 -0.37806
C 11.07666 6.29970 1.19141
O 10.12147 6.11022 2.02480
C 11.23110 7.57111 0.46951
N 11.88287 1.10034 2.64229
C 11.18305 2.17915 3.03514
C 10.14583 1.80983 4.06866
C 10.13172 0.21120 4.11097
C 11.27639 -0.07840 3.11535
C 10.38658 2.35383 5.47666
C 8.76239 -0.48671 3.88626
C 8.29857 -0.26748 2.46422
N 13.37460 -0.95243 1.19375
C 12.70438 -1.80087 2.10206
C 13.28244 -3.15118 1.94414
C 14.27253 -2.98851 0.96346
C 14.32272 -1.62844 0.55457
C 12.91439 -4.30612 2.69031
C 15.29387 -3.65596 0.18881
O 15.64990 -4.82481 0.04464
C 16.18513 -2.55302 -0.52922
C 16.34506 -2.95140 -1.97083
O 15.36190 -2.97829 -2.73195
O 17.65597 -3.02336 -2.26527
C 17.86571 -3.40449 -3.68745
H 16.03837 4.37875 -0.21625
H 10.63854 4.05217 2.90571
H 11.28134 -2.16834 3.47737
H 17.96181 -0.05875 -1.20782
H 17.49468 2.69903 -1.54474
H 18.42308 1.06934 0.78385
H 17.56543 2.56353 1.21532
H 18.99655 2.69029 0.23784
H 16.18904 1.47409 -3.12445
H 16.14146 -0.32610 -3.17172
H 18.86741 0.48801 -3.28993
H 17.99890 1.72008 -4.13407
H 15.16988 6.24615 -0.66268
H 14.24017 7.26787 0.38179
H 13.56444 6.88214 -1.21864
H 12.17642 8.03140 0.74695
H 10.32420 8.14026 0.68272
H 11.28732 7.35926 -0.60407
H 9.16468 2.16226 3.77498
H 10.46000 -0.17345 5.08776
H 9.54540 2.96219 5.85928
H 11.30084 2.93226 5.46740
H 10.59781 1.59997 6.23315
H 8.00092 -0.04373 4.53287
H 8.78110 -1.55147 4.09350
H 7.82966 0.72013 2.50708
H 7.58168 -1.03248 2.17287
H 9.15099 -0.19819 1.77849
H 12.84470 -5.12341 1.98484
H 11.97560 -4.15528 3.21917
H 13.76437 -4.37539 3.37441
H 17.14174 -2.51381 -0.00679
H 18.50382 -4.29358 -3.68918
H 18.26215 -2.49897 -4.18406
H 17.00591 -3.76016 -4.24304

