%nproc=24
%mem=175gb
#p cam-b3lyp/Def2SVP td=(nstates=5)

TDDFT excited states in gaussian

0 1
Mg 7.88503 0.71450 0.60809
C 6.48322 -1.66151 2.90342
C 5.65851 2.98866 1.83506
C 8.78565 2.69427 -1.70207
C 9.16842 -1.98411 -1.18526
N 6.32375 0.56383 2.16757
C 5.92368 -0.37164 3.01561
C 4.92262 0.12324 4.09382
C 4.32863 1.39075 3.30675
C 5.51975 1.69608 2.40083
C 3.13609 1.04928 2.42893
C 5.63909 0.55548 5.42116
C 4.70786 0.75554 6.61888
H 5.19313 0.38939 7.94663
N 7.66889 2.68051 0.44478
C 6.72401 3.44659 1.02925
C 6.98509 4.82205 0.57744
C 8.05975 4.78185 -0.45126
C 8.20173 3.35057 -0.62836
C 6.30103 6.01797 1.17346
C 8.82320 5.85432 -1.16760
O 9.54495 5.59548 -2.19468
C 8.62705 7.23027 -0.68825
N 8.65709 0.40051 -1.29656
C 9.01410 1.43551 -2.07709
C 9.79493 0.96649 -3.28155
C 10.09755 -0.58210 -3.02099
C 9.32887 -0.77048 -1.69470
C 9.09633 1.12815 -4.63143
C 11.58381 -1.02903 -3.08383
C 12.35386 -0.42384 -1.93224
N 8.00963 -1.42368 0.89217
C 8.56581 -2.37106 0.00492
C 8.31358 -3.70775 0.58117
C 7.60236 -3.44439 1.76155
C 7.40634 -2.04372 1.90016
C 8.68372 -4.95028 -0.00640
C 6.96360 -4.03345 2.91640
O 6.88388 -5.17055 3.37941
C 6.10056 -2.91359 3.64267
C 6.40128 -2.97749 5.11509
O 7.53626 -2.69994 5.54100
O 5.25083 -3.14253 5.79302
C 5.49608 -3.20067 7.25873
H 4.85530 3.71029 1.98661
H 9.21156 3.33943 -2.47398
H 9.62209 -2.87031 -1.63415
H 4.12760 -0.57395 4.32967
H 4.13988 2.22170 3.98147
H 2.95775 -0.01497 2.38774
H 3.37604 1.43104 1.44519
H 2.25321 1.60348 2.76018
H 6.01946 1.57860 5.30595
H 6.41508 -0.13885 5.67879
H 3.71246 0.33001 6.44267
H 4.52410 1.82579 6.74061
H 5.44349 5.72441 1.79140
H 5.85834 6.57963 0.34375
H 6.98935 6.67069 1.71462
H 7.57305 7.48923 -0.75524
H 9.32288 7.84266 -1.26504
H 8.89459 7.27235 0.37348
H 10.73441 1.49899 -3.36471
H 9.60341 -1.22455 -3.76457
H 9.67823 1.73006 -5.35473
H 8.12456 1.57249 -4.46181
H 8.84001 0.19666 -5.13326
H 12.05223 -0.65880 -3.99907
H 11.71189 -2.10624 -3.06952
H 12.60101 0.57676 -2.29940
H 13.25251 -1.00190 -1.72650
H 11.71333 -0.30270 -1.05094
H 9.08786 -5.56257 0.78876
H 9.40571 -4.81142 -0.80840
H 7.71303 -5.28552 -0.38143
H 5.05086 -3.11959 3.42990
H 5.05948 -4.13736 7.61881
H 5.08062 -2.26093 7.66865
H 6.52226 -3.30397 7.59148

