%nproc=24
%mem=175gb
#p cam-b3lyp/Def2SVP td=(nstates=5)

TDDFT excited states in gaussian

0 1
Mg 10.51805 0.94477 0.80608
C 8.47988 -0.49554 3.38492
C 11.23744 3.46487 2.98923
C 11.95277 2.46769 -1.57924
C 8.76590 -1.01586 -1.48119
N 9.88097 1.32407 2.88995
C 9.15448 0.67577 3.78787
C 9.21538 1.27499 5.21853
C 9.61707 2.78092 4.83160
C 10.32188 2.51233 3.50353
C 8.41704 3.67387 4.56344
C 10.31809 0.59598 6.10453
C 10.22817 0.91361 7.59878
H 10.58723 -0.13000 8.55504
N 11.83841 2.42606 0.83768
C 12.00937 3.34306 1.81296
C 13.09060 4.22644 1.34954
C 13.43160 3.85562 -0.05079
C 12.38371 2.89483 -0.33168
C 13.74631 5.24440 2.23679
C 14.51321 4.30248 -0.98708
O 14.47828 4.02468 -2.23785
C 15.56594 5.15387 -0.41401
N 10.24153 0.91579 -1.25427
C 11.03555 1.63305 -2.06852
C 10.82992 1.24352 -3.51295
C 9.90335 -0.05952 -3.47880
C 9.64923 -0.14954 -1.95804
C 10.18266 2.30475 -4.40246
C 10.43396 -1.31988 -4.21541
C 11.65386 -1.85854 -3.50333
N 9.04406 -0.63108 0.91613
C 8.42447 -1.29648 -0.16435
C 7.41052 -2.20571 0.40803
C 7.49529 -1.98760 1.79140
C 8.47764 -0.99666 2.06068
C 6.53446 -3.04735 -0.33378
C 6.96968 -2.36262 3.08438
O 6.18040 -3.21629 3.48691
C 7.49504 -1.32178 4.16468
C 8.01130 -2.09816 5.34504
O 9.01019 -2.83031 5.23201
O 7.37752 -1.68288 6.45690
C 7.86332 -2.41602 7.65620
H 11.34582 4.41538 3.51237
H 12.49427 2.88245 -2.43260
H 8.24637 -1.73201 -2.12142
H 8.27397 1.26736 5.75468
H 10.31175 3.20232 5.55354
H 7.49226 3.11627 4.56195
H 8.59232 4.11847 3.59254
H 8.39789 4.50360 5.27585
H 11.29118 1.04863 5.87445
H 10.32131 -0.46699 5.96061
H 9.26557 1.36581 7.86686
H 10.96266 1.68775 7.83380
H 13.17395 5.40228 3.15922
H 13.69138 6.20601 1.71511
H 14.79374 5.01261 2.44129
H 15.11643 6.05044 0.00619
H 16.29459 5.29629 -1.21442
H 16.03533 4.61747 0.41818
H 11.77246 0.99226 -3.98367
H 8.92650 0.12267 -3.95039
H 10.79709 2.56958 -5.28361
H 9.98483 3.18106 -3.79958
H 9.19156 2.05257 -4.77572
H 10.75465 -1.06021 -5.22728
H 9.69658 -2.11069 -4.30427
H 12.46447 -1.24018 -3.90034
H 11.80488 -2.90905 -3.74345
H 11.59456 -1.67161 -2.42481
H 6.51893 -4.00358 0.17206
H 6.86041 -3.14847 -1.36689
H 5.60307 -2.48088 -0.25079
H 6.65709 -0.67739 4.43334
H 6.98639 -2.86376 8.13391
H 8.43606 -1.67646 8.24677
H 8.48393 -3.28924 7.49252

