%nproc=24
%mem=175gb
#p cam-b3lyp/Def2SVP td=(nstates=5)

TDDFT excited states in gaussian

0 1
Mg 0.00000 0.00000 0.00000
C -0.21700 -2.21800 2.80100
C -1.25500 2.44200 2.02600
C -0.24500 1.85000 -2.56400
C 0.14600 -2.82400 -2.03700
N -0.61700 -0.00900 2.12600
C -0.59400 -0.90800 3.10500
C -0.93600 -0.30900 4.50200
C -1.77300 0.96400 4.03200
C -1.15500 1.16800 2.66000
C -3.26300 0.68500 3.86300
C 0.34500 0.11000 5.29900
C 0.12400 0.39700 6.78700
H 1.16800 0.03300 7.73300
N -0.18500 1.96100 -0.15200
C -0.70300 2.80000 0.77700
C -0.62000 4.15600 0.19300
C -0.18700 4.01500 -1.22500
C -0.21400 2.58300 -1.38000
C -0.88700 5.40600 0.97400
C 0.18100 5.01300 -2.27700
O 0.30300 4.69000 -3.50800
C 0.31000 6.41400 -1.83700
N -0.26500 -0.41300 -2.02900
C -0.27900 0.56900 -2.93700
C -0.19600 0.02400 -4.33200
C 0.12400 -1.53300 -4.18000
C 0.08600 -1.63200 -2.63500
C -1.45100 0.20500 -5.19700
C 1.37300 -2.07000 -4.92300
C 2.62600 -1.49000 -4.30600
N 0.15000 -2.14400 0.30300
C 0.17300 -3.13600 -0.68800
C 0.17300 -4.43800 0.00400
C 0.13300 -4.11100 1.35800
C 0.08300 -2.69500 1.50200
C 0.14900 -5.71500 -0.62300
C 0.09600 -4.62900 2.71600
O 0.20800 -5.74700 3.22100
C -0.25500 -3.42800 3.70100
C 0.71700 -3.48200 4.84800
O 1.93100 -3.25500 4.66900
O 0.03800 -3.55600 6.00300
C 0.94300 -3.58300 7.18300
H -1.85900 3.22000 2.49700
H -0.21800 2.45300 -3.47400
H 0.27600 -3.74700 -2.60500
H -1.55400 -0.94900 5.13200
H -1.58500 1.83100 4.66500
H -3.48400 -0.37700 3.96900
H -3.51100 1.02700 2.85800
H -3.85200 1.30100 4.54300
H 0.66900 1.09600 4.96600
H 1.13000 -0.63900 5.18900
H -0.84400 0.02600 7.12500
H 0.06200 1.47700 6.92100
H -1.34400 5.18600 1.93800
H -1.65100 5.96300 0.43200
H 0.00700 6.02000 1.08400
H -0.63500 6.74400 -1.40500
H 0.66500 6.97000 -2.70400
H 1.04800 6.46600 -1.03600
H 0.60800 0.50100 -4.89100
H -0.69200 -2.15600 -4.54700
H -1.26700 0.74000 -6.12900
H -2.20400 0.71400 -4.59600
H -1.96700 -0.72000 -5.45300
H 1.35600 -1.75900 -5.96700
H 1.45200 -3.15700 -4.90200
H 2.71400 -0.52200 -4.79800
H 3.48700 -2.12100 -4.52900
H 2.49500 -1.30300 -3.24000
H 0.86700 -6.33300 -0.08400
H 0.40400 -5.64200 -1.68000
H -0.89100 -5.99900 -0.46300
H -1.28300 -3.58100 4.02800
H 0.69800 -4.47800 7.75500
H 0.83300 -2.61900 7.68000
H 2.00000 -3.75400 6.97600
Mg 15.77293 1.41968 1.20591
C 15.80355 -2.03765 2.16768
C 14.58937 2.12288 4.32670
C 15.30766 4.40851 0.24786
C 15.85174 0.35396 -2.11127
N 15.29918 0.12463 2.93527
C 15.40897 -1.16743 3.20521
C 15.15471 -1.53796 4.69101
C 14.24530 -0.27933 5.10049
C 14.76231 0.73675 4.08414
C 12.76349 -0.49897 4.84488
C 16.47969 -1.58649 5.53011
C 16.34513 -2.23981 6.90736
H 17.46600 -3.02415 7.41817
N 15.52684 3.08277 2.26049
C 15.05658 3.18469 3.52135
C 15.04914 4.62240 3.83297
C 15.39761 5.37236 2.59570
C 15.40401 4.29447 1.62709
C 14.80986 5.15393 5.21632
C 15.66643 6.82195 2.32622
O 15.71612 7.28706 1.13289
C 15.77698 7.69781 3.50186
N 15.39042 2.25982 -0.65693
C 15.28206 3.59178 -0.80552
C 15.28312 3.97971 -2.26494
C 15.65958 2.64632 -3.06364
C 15.72652 1.65394 -1.88207
C 13.96825 4.54193 -2.80478
C 16.87103 2.72468 -4.03262
C 18.14831 2.91803 -3.24741
N 16.00508 -0.46996 0.18442
C 15.98251 -0.69446 -1.20955
C 16.06507 -2.15483 -1.41673
C 16.10709 -2.68423 -0.11810
C 16.03406 -1.62961 0.83160
C 16.04414 -2.81895 -2.67555
C 16.18589 -3.89612 0.66537
O 16.35492 -5.08734 0.40819
C 15.86539 -3.53986 2.18087
C 16.91274 -4.19043 3.04246
O 18.10131 -3.83127 2.97225
O 16.30857 -4.97151 3.95638
C 17.30569 -5.62996 4.84183
H 14.00403 2.42870 5.19430
H 15.25718 5.42913 -0.13848
H 15.98034 -0.05175 -3.11703
H 14.60446 -2.45898 4.84175
H 14.46091 0.05091 6.11332
H 12.57816 -1.42343 4.31841
H 12.43891 0.34588 4.25164
H 12.20609 -0.43966 5.78409
H 16.75009 -0.56635 5.83169
H 17.26339 -2.06691 4.97728
H 15.40705 -2.79905 7.00841
H 16.26927 -1.45099 7.65971
H 14.41824 4.37645 5.88382
H 13.99613 5.88346 5.14224
H 15.68932 5.64688 5.63610
H 14.85692 7.64532 4.07910
H 16.05862 8.67748 3.11097
H 16.57595 7.31710 4.14787
H 16.03538 4.73301 -2.46430
H 14.83437 2.31125 -3.70907
H 14.07478 5.54825 -3.25204
H 13.24744 4.55868 -1.99813
H 13.47020 3.92018 -3.54679
H 16.77558 3.59330 -4.68878
H 16.97340 1.85106 -4.66768
H 18.17028 3.99808 -3.07397
H 19.00865 2.59419 -3.82963
H 18.08659 2.42819 -2.26868
H 16.80615 -3.58593 -2.63563
H 16.22041 -2.12455 -3.49440
H 15.02062 -3.20322 -2.67634
H 14.86456 -3.91351 2.40064
H 17.12124 -6.70720 4.78509
H 17.18885 -5.15037 5.83183
H 18.34774 -5.57809 4.54876

