%nproc=24
%mem=175gb
#p cam-b3lyp/Def2SVP td=(nstates=5)

TDDFT excited states in gaussian

0 1
Mg 0.00000 0.00000 0.00000
C -0.21700 -2.21800 2.80100
C -1.25500 2.44200 2.02600
C -0.24500 1.85000 -2.56400
C 0.14600 -2.82400 -2.03700
N -0.61700 -0.00900 2.12600
C -0.59400 -0.90800 3.10500
C -0.93600 -0.30900 4.50200
C -1.77300 0.96400 4.03200
C -1.15500 1.16800 2.66000
C -3.26300 0.68500 3.86300
C 0.34500 0.11000 5.29900
C 0.12400 0.39700 6.78700
H 1.16800 0.03300 7.73300
N -0.18500 1.96100 -0.15200
C -0.70300 2.80000 0.77700
C -0.62000 4.15600 0.19300
C -0.18700 4.01500 -1.22500
C -0.21400 2.58300 -1.38000
C -0.88700 5.40600 0.97400
C 0.18100 5.01300 -2.27700
O 0.30300 4.69000 -3.50800
C 0.31000 6.41400 -1.83700
N -0.26500 -0.41300 -2.02900
C -0.27900 0.56900 -2.93700
C -0.19600 0.02400 -4.33200
C 0.12400 -1.53300 -4.18000
C 0.08600 -1.63200 -2.63500
C -1.45100 0.20500 -5.19700
C 1.37300 -2.07000 -4.92300
C 2.62600 -1.49000 -4.30600
N 0.15000 -2.14400 0.30300
C 0.17300 -3.13600 -0.68800
C 0.17300 -4.43800 0.00400
C 0.13300 -4.11100 1.35800
C 0.08300 -2.69500 1.50200
C 0.14900 -5.71500 -0.62300
C 0.09600 -4.62900 2.71600
O 0.20800 -5.74700 3.22100
C -0.25500 -3.42800 3.70100
C 0.71700 -3.48200 4.84800
O 1.93100 -3.25500 4.66900
O 0.03800 -3.55600 6.00300
C 0.94300 -3.58300 7.18300
H -1.85900 3.22000 2.49700
H -0.21800 2.45300 -3.47400
H 0.27600 -3.74700 -2.60500
H -1.55400 -0.94900 5.13200
H -1.58500 1.83100 4.66500
H -3.48400 -0.37700 3.96900
H -3.51100 1.02700 2.85800
H -3.85200 1.30100 4.54300
H 0.66900 1.09600 4.96600
H 1.13000 -0.63900 5.18900
H -0.84400 0.02600 7.12500
H 0.06200 1.47700 6.92100
H -1.34400 5.18600 1.93800
H -1.65100 5.96300 0.43200
H 0.00700 6.02000 1.08400
H -0.63500 6.74400 -1.40500
H 0.66500 6.97000 -2.70400
H 1.04800 6.46600 -1.03600
H 0.60800 0.50100 -4.89100
H -0.69200 -2.15600 -4.54700
H -1.26700 0.74000 -6.12900
H -2.20400 0.71400 -4.59600
H -1.96700 -0.72000 -5.45300
H 1.35600 -1.75900 -5.96700
H 1.45200 -3.15700 -4.90200
H 2.71400 -0.52200 -4.79800
H 3.48700 -2.12100 -4.52900
H 2.49500 -1.30300 -3.24000
H 0.86700 -6.33300 -0.08400
H 0.40400 -5.64200 -1.68000
H -0.89100 -5.99900 -0.46300
H -1.28300 -3.58100 4.02800
H 0.69800 -4.47800 7.75500
H 0.83300 -2.61900 7.68000
H 2.00000 -3.75400 6.97600
Mg 7.87634 0.71545 0.60458
C 9.99897 1.78993 3.29140
C 5.92163 -0.79981 2.95356
C 6.24082 -0.62184 -1.76273
C 10.54464 1.31093 -1.55674
N 8.04247 0.58338 2.80622
C 8.85738 1.08294 3.72312
C 8.38172 0.87832 5.18648
C 7.44380 -0.40489 4.95725
C 7.07933 -0.18243 3.49084
C 8.19043 -1.72375 5.06906
C 7.55977 2.10184 5.72443
C 7.32888 2.10633 7.23719
H 7.32026 3.38845 7.93616
N 6.06877 -0.10379 0.59488
C 5.41757 -0.65062 1.64283
C 4.13278 -1.13153 1.11163
C 4.14765 -0.97192 -0.36791
C 5.52441 -0.57020 -0.57587
C 3.01299 -1.60292 1.99328
C 3.10008 -1.16317 -1.42253
O 3.39774 -1.19831 -2.66872
C 1.72881 -1.40138 -0.94888
N 8.38721 0.18884 -1.34068
C 7.47273 -0.32871 -2.17960
C 7.99406 -0.37074 -3.59623
C 9.36459 0.45312 -3.57428
C 9.44713 0.76681 -2.06426
C 8.24744 -1.76433 -4.17077
C 9.49555 1.62824 -4.58157
C 8.53088 2.73274 -4.21432
N 9.84450 1.59167 0.76782
C 10.80939 1.71823 -0.25543
C 12.03097 2.27171 0.36411
C 11.69694 2.40830 1.71993
C 10.36828 1.95193 1.93415
C 13.25918 2.53207 -0.30658
C 12.16983 2.82484 3.02054
O 13.18621 3.37741 3.43930
C 11.13489 2.32498 4.11846
C 10.84685 3.47573 5.04330
O 10.26145 4.49059 4.62618
O 11.11277 3.10173 6.30812
C 10.83208 4.20613 7.26382
H 5.36779 -1.49874 3.58097
H 5.68397 -0.97263 -2.63471
H 11.38691 1.61683 -2.18098
H 9.16970 0.64176 5.89139
H 6.55532 -0.36137 5.58181
H 9.25568 -1.57655 5.16764
H 7.96602 -2.26679 4.16033
H 7.77870 -2.32184 5.88704
H 6.52229 2.01714 5.37628
H 8.01345 3.02671 5.42540
H 7.97843 1.39046 7.75542
H 6.31765 1.74257 7.43496
H 3.35275 -1.76332 3.02393
H 2.72840 -2.60089 1.64267
H 2.13862 -0.95010 1.94895
H 1.71324 -2.28735 -0.31859
H 1.10915 -1.42452 -1.84741
H 1.42606 -0.55963 -0.31609
H 7.30411 0.11300 -4.27673
H 10.22808 -0.18611 -3.81010
H 7.69007 -1.95861 -5.10654
H 7.99098 -2.49631 -3.41647
H 9.29135 -1.99749 -4.37347
H 9.22126 1.29800 -5.58648
H 10.49858 2.03758 -4.63967
H 7.59179 2.40088 -4.66717
H 8.85766 3.68201 -4.63400
H 8.37665 2.77614 -3.12989
H 13.60707 3.49485 0.04346
H 13.13178 2.52333 -1.38707
H 13.85575 1.68532 0.04326
H 11.59246 1.48422 4.64127
H 11.75076 4.37687 7.83351
H 9.93811 3.88876 7.83290
H 10.65252 5.19216 6.85157

