%nproc=24
%mem=175gb
#p cam-b3lyp/Def2SVP td=(nstates=5)

TDDFT excited states in gaussian

0 1
Mg 0.00000 0.00000 0.00000
C -0.21700 -2.21800 2.80100
C -1.25500 2.44200 2.02600
C -0.24500 1.85000 -2.56400
C 0.14600 -2.82400 -2.03700
N -0.61700 -0.00900 2.12600
C -0.59400 -0.90800 3.10500
C -0.93600 -0.30900 4.50200
C -1.77300 0.96400 4.03200
C -1.15500 1.16800 2.66000
C -3.26300 0.68500 3.86300
C 0.34500 0.11000 5.29900
C 0.12400 0.39700 6.78700
H 1.16800 0.03300 7.73300
N -0.18500 1.96100 -0.15200
C -0.70300 2.80000 0.77700
C -0.62000 4.15600 0.19300
C -0.18700 4.01500 -1.22500
C -0.21400 2.58300 -1.38000
C -0.88700 5.40600 0.97400
C 0.18100 5.01300 -2.27700
O 0.30300 4.69000 -3.50800
C 0.31000 6.41400 -1.83700
N -0.26500 -0.41300 -2.02900
C -0.27900 0.56900 -2.93700
C -0.19600 0.02400 -4.33200
C 0.12400 -1.53300 -4.18000
C 0.08600 -1.63200 -2.63500
C -1.45100 0.20500 -5.19700
C 1.37300 -2.07000 -4.92300
C 2.62600 -1.49000 -4.30600
N 0.15000 -2.14400 0.30300
C 0.17300 -3.13600 -0.68800
C 0.17300 -4.43800 0.00400
C 0.13300 -4.11100 1.35800
C 0.08300 -2.69500 1.50200
C 0.14900 -5.71500 -0.62300
C 0.09600 -4.62900 2.71600
O 0.20800 -5.74700 3.22100
C -0.25500 -3.42800 3.70100
C 0.71700 -3.48200 4.84800
O 1.93100 -3.25500 4.66900
O 0.03800 -3.55600 6.00300
C 0.94300 -3.58300 7.18300
H -1.85900 3.22000 2.49700
H -0.21800 2.45300 -3.47400
H 0.27600 -3.74700 -2.60500
H -1.55400 -0.94900 5.13200
H -1.58500 1.83100 4.66500
H -3.48400 -0.37700 3.96900
H -3.51100 1.02700 2.85800
H -3.85200 1.30100 4.54300
H 0.66900 1.09600 4.96600
H 1.13000 -0.63900 5.18900
H -0.84400 0.02600 7.12500
H 0.06200 1.47700 6.92100
H -1.34400 5.18600 1.93800
H -1.65100 5.96300 0.43200
H 0.00700 6.02000 1.08400
H -0.63500 6.74400 -1.40500
H 0.66500 6.97000 -2.70400
H 1.04800 6.46600 -1.03600
H 0.60800 0.50100 -4.89100
H -0.69200 -2.15600 -4.54700
H -1.26700 0.74000 -6.12900
H -2.20400 0.71400 -4.59600
H -1.96700 -0.72000 -5.45300
H 1.35600 -1.75900 -5.96700
H 1.45200 -3.15700 -4.90200
H 2.71400 -0.52200 -4.79800
H 3.48700 -2.12100 -4.52900
H 2.49500 -1.30300 -3.24000
H 0.86700 -6.33300 -0.08400
H 0.40400 -5.64200 -1.68000
H -0.89100 -5.99900 -0.46300
H -1.28300 -3.58100 4.02800
H 0.69800 -4.47800 7.75500
H 0.83300 -2.61900 7.68000
H 2.00000 -3.75400 6.97600
Mg 10.51335 0.95110 0.80754
C 9.24244 -1.40357 3.19905
C 8.38388 3.24706 2.15977
C 11.28045 2.91304 -1.56518
C 11.66311 -1.76536 -1.04843
N 9.05219 0.81921 2.46279
C 8.69985 -0.10921 3.33928
C 7.77192 0.39808 4.47557
C 7.13828 1.66591 3.72060
C 8.27216 1.95829 2.74003
C 5.89063 1.32865 2.92126
C 8.57333 0.83171 5.75296
C 7.72059 1.04428 7.00573
H 8.28585 0.68120 8.30231
N 10.30075 2.91777 0.64762
C 9.39972 3.69343 1.28618
C 9.64123 5.06475 0.81151
C 10.64881 5.01185 -0.28243
C 10.76964 3.57874 -0.46044
C 9.00414 6.26843 1.44293
C 11.37301 6.07533 -1.05103
O 12.02701 5.80631 -2.12002
C 11.21674 7.45498 -0.56767
N 11.16202 0.62227 -1.14014
C 11.47631 1.65086 -1.94708
C 12.17669 1.17038 -3.19568
C 12.48454 -0.37903 -2.94636
C 11.79948 -0.55542 -1.57342
C 11.39574 1.33038 -4.49986
C 13.96084 -0.83685 -3.10005
C 14.80585 -0.23152 -2.00236
N 10.64102 -1.18649 1.09466
C 11.13387 -2.14216 0.17930
C 10.90927 -3.47417 0.77740
C 10.27545 -3.19996 1.99869
C 10.09806 -1.79727 2.14186
C 11.23328 -4.72218 0.17439
C 9.70654 -3.77878 3.19452
O 9.64835 -4.91300 3.66769
C 8.89850 -2.64924 3.96757
C 9.29072 -2.70805 5.41851
O 10.45208 -2.43652 5.77080
O 8.18406 -2.86157 6.16824
C 8.52053 -2.91425 7.61594
H 7.59670 3.97514 2.35761
H 11.66138 3.55135 -2.36577
H 12.08163 -2.65696 -1.52019
H 6.98857 -0.29226 4.76462
H 6.99796 2.50149 4.40140
H 5.70281 0.26550 2.89704
H 6.07087 1.70385 1.92237
H 5.03411 1.89074 3.30434
H 8.95265 1.85152 5.60862
H 9.35923 0.13314 5.96505
H 6.71321 0.62500 6.89466
H 7.55213 2.11640 7.13303
H 8.18515 5.98402 2.11507
H 8.51400 6.82915 0.63967
H 9.72953 6.91888 1.93628
H 10.16240 7.72110 -0.56971
H 11.87909 8.05955 -1.19029
H 11.55076 7.50035 0.47492
H 13.11269 1.69576 -3.34053
H 11.94028 -1.02159 -3.65399
H 11.93512 1.92458 -5.26149
H 10.43961 1.78247 -4.27191
H 11.10206 0.39829 -4.97961
H 14.37332 -0.47446 -4.04487
H 14.08223 -1.91486 -3.08806
H 15.03623 0.76549 -2.38966
H 15.71169 -0.81494 -1.85038
H 14.22281 -0.10148 -1.08322
H 11.68243 -5.33342 0.94585
H 11.90437 -4.59240 -0.67211
H 10.23869 -5.05233 -0.13713
H 7.83612 -2.84881 3.82226
H 8.10106 -3.84604 8.00774
H 8.13806 -1.96958 8.04611
H 9.56488 -3.02323 7.88412

