%nproc=24
%mem=175gb
#p cam-b3lyp/Def2SVP td=(nstates=5)

TDDFT excited states in gaussian

0 1
Mg 13.13291 1.18503 0.98936
C 14.15256 -1.48795 -1.17733
C 14.36362 3.34662 -1.34462
C 12.65908 3.53863 3.06385
C 13.04052 -1.13945 3.58435
N 14.10776 0.85153 -0.96785
C 14.38636 -0.20546 -1.71585
C 14.87213 0.13219 -3.15097
C 15.43138 1.61178 -2.87366
C 14.55965 1.98199 -1.67545
C 16.88508 1.63260 -2.43130
C 13.69769 0.14766 -4.19138
C 14.13717 0.16437 -5.65710
H 13.33094 -0.56260 -6.63381
N 13.00654 3.14457 0.70159
C 13.54670 3.85484 -0.31085
C 13.18465 5.25776 -0.05608
C 12.52702 5.33792 1.27652
C 12.72846 3.98380 1.75176
C 13.39640 6.34889 -1.06505
C 11.84278 6.45274 2.00809
O 11.55395 6.36332 3.25365
C 11.60502 7.68778 1.24674
N 13.09032 1.24596 3.06706
C 12.81073 2.38785 3.71961
C 12.56472 2.13121 5.18727
C 12.49913 0.54065 5.34019
C 12.82150 0.13308 3.88576
C 13.61529 2.69149 6.14580
C 11.22777 -0.05025 6.00889
C 10.02682 0.16758 5.11690
N 13.33850 -0.95851 1.16545
C 13.29103 -1.72549 2.35017
C 13.59737 -3.12179 1.97743
C 13.82626 -3.06584 0.59432
C 13.69320 -1.72569 0.14071
C 13.68291 -4.22289 2.87542
C 14.16063 -3.83402 -0.58330
O 14.30498 -5.03122 -0.82745
C 14.51108 -2.82621 -1.76139
C 13.77110 -3.27462 -2.99178
O 12.52844 -3.24243 -3.02884
O 14.65139 -3.45999 -3.99233
C 13.96388 -3.89470 -5.23739
H 14.92027 4.10068 -1.90178
H 12.38804 4.29456 3.80451
H 12.93528 -1.94000 4.31968
H 15.66777 -0.50250 -3.52232
H 15.22907 2.27398 -3.71147
H 17.26895 0.63756 -2.26192
H 16.90537 2.20709 -1.51446
H 17.49007 2.19176 -3.15078
H 13.18477 1.11658 -4.13797
H 13.02942 -0.67452 -4.02386
H 15.19868 -0.08651 -5.77202
H 14.06191 1.18862 -6.03029
H 14.04925 6.01946 -1.88276
H 13.96528 7.14045 -0.56537
H 12.45837 6.76784 -1.43552
H 12.55369 8.07753 0.88538
H 11.02735 8.33376 1.91073
H 11.00743 7.44343 0.36142
H 11.61783 2.55369 5.50033
H 13.32028 0.15703 5.96339
H 13.19236 3.37576 6.90539
H 14.37586 3.19379 5.56291
H 14.19398 1.94354 6.68516
H 11.01646 0.46988 6.94643
H 11.31224 -1.10711 6.23889
H 9.72276 1.19060 5.35786
H 9.23910 -0.54458 5.35432
H 10.31380 0.14949 4.05909
H 13.17066 -5.05046 2.40297
H 13.24476 -3.98268 3.84190
H 14.76804 -4.34219 2.93491
H 15.59233 -2.85036 -1.90240
H 14.43350 -4.83212 -5.55104
H 14.03590 -3.03774 -5.93322
H 12.92550 -4.19457 -5.15798

