%nproc=24
%mem=175gb
#p cam-b3lyp/Def2SVP td=(nstates=5)

TDDFT excited states in gaussian

0 1
Mg 7.88974 0.71047 0.60709
C 7.89789 -2.67951 1.78483
C 6.69249 1.61433 3.67045
C 7.44461 3.63511 -0.53997
C 7.98158 -0.56247 -2.63589
N 7.40003 -0.47086 2.41178
C 7.50192 -1.74384 2.76318
C 7.23762 -2.01885 4.26787
C 6.33222 -0.73274 4.59197
C 6.85987 0.21489 3.51668
C 4.85078 -0.96123 4.34207
C 8.55770 -2.02052 5.11606
C 8.41229 -2.58514 6.53091
H 9.52642 -3.34090 7.09662
N 7.64610 2.43781 1.55339
C 7.16940 2.62113 2.80256
C 7.16737 4.07563 3.02298
C 7.52639 4.74454 1.74299
C 7.53278 3.60775 0.84423
C 6.92310 4.69436 4.36869
C 7.80388 6.17302 1.38432
O 7.86246 6.56179 0.16438
C 7.91229 7.12069 2.50310
N 7.52170 1.43333 -1.30716
C 7.42077 2.75376 -1.53997
C 7.43181 3.04897 -3.02088
C 7.80606 1.66619 -3.73183
C 7.86154 0.74993 -2.48974
C 6.12276 3.58211 -3.60271
C 9.02321 1.67777 -4.69675
C 10.29708 1.91431 -3.91785
N 8.11815 -1.24082 -0.29201
C 8.10216 -1.55259 -1.66919
C 8.17862 -3.02348 -1.78350
C 8.21083 -3.47020 -0.45388
C 8.13780 -2.35751 0.42707
C 8.16134 -3.76549 -2.99810
C 8.27929 -4.63067 0.40479
O 8.44383 -5.83650 0.22412
C 7.95220 -4.17816 1.89296
C 8.99154 -4.77798 2.79989
O 10.18225 -4.42943 2.71412
O 8.37847 -5.49714 3.75765
C 9.36740 -6.10308 4.68860
H 6.10389 1.97689 4.51365
H 7.40133 4.62958 -0.99011
H 8.11371 -1.03133 -3.61333
H 6.68198 -2.92600 4.47310
H 6.54388 -0.34034 5.58322
H 4.66377 -1.91616 3.87379
H 4.53368 -0.15395 3.69493
H 4.28850 -0.84029 5.27242
H 8.83148 -0.98466 5.35436
H 9.34205 -2.53842 4.59915
H 7.47091 -3.13259 6.66151
H 8.33620 -1.75015 7.23163
H 6.52394 3.96229 5.08154
H 6.11343 5.42151 4.24409
H 7.80267 5.20872 4.76171
H 6.98881 7.10891 3.07713
H 8.20094 8.07248 2.05293
H 8.70578 6.77776 3.17644
H 8.18890 3.78474 -3.26291
H 6.98276 1.29493 -4.35967
H 6.23674 4.55775 -4.11183
H 5.39759 3.65297 -2.80293
H 5.62572 2.91715 -4.30698
H 8.93570 2.50375 -5.40685
H 9.12474 0.76541 -5.27492
H 10.32345 3.00304 -3.81265
H 11.15900 1.55048 -4.47351
H 10.22753 1.48741 -2.91060
H 8.91929 -4.53193 -2.90552
H 8.34557 -3.12488 -3.85801
H 7.13594 -4.14433 -2.98065
H 6.94834 -4.53262 2.12999
H 9.17792 -7.18090 4.69874
H 9.24748 -5.56154 5.64573
H 10.41130 -6.07458 4.39891

