%nproc=24
%mem=175gb
#p cam-b3lyp/Def2SVP td=(nstates=5)

TDDFT excited states in gaussian

0 1
Mg 0.00000 0.00000 0.00000
C -0.21700 -2.21800 2.80100
C -1.25500 2.44200 2.02600
C -0.24500 1.85000 -2.56400
C 0.14600 -2.82400 -2.03700
N -0.61700 -0.00900 2.12600
C -0.59400 -0.90800 3.10500
C -0.93600 -0.30900 4.50200
C -1.77300 0.96400 4.03200
C -1.15500 1.16800 2.66000
C -3.26300 0.68500 3.86300
C 0.34500 0.11000 5.29900
C 0.12400 0.39700 6.78700
H 1.16800 0.03300 7.73300
N -0.18500 1.96100 -0.15200
C -0.70300 2.80000 0.77700
C -0.62000 4.15600 0.19300
C -0.18700 4.01500 -1.22500
C -0.21400 2.58300 -1.38000
C -0.88700 5.40600 0.97400
C 0.18100 5.01300 -2.27700
O 0.30300 4.69000 -3.50800
C 0.31000 6.41400 -1.83700
N -0.26500 -0.41300 -2.02900
C -0.27900 0.56900 -2.93700
C -0.19600 0.02400 -4.33200
C 0.12400 -1.53300 -4.18000
C 0.08600 -1.63200 -2.63500
C -1.45100 0.20500 -5.19700
C 1.37300 -2.07000 -4.92300
C 2.62600 -1.49000 -4.30600
N 0.15000 -2.14400 0.30300
C 0.17300 -3.13600 -0.68800
C 0.17300 -4.43800 0.00400
C 0.13300 -4.11100 1.35800
C 0.08300 -2.69500 1.50200
C 0.14900 -5.71500 -0.62300
C 0.09600 -4.62900 2.71600
O 0.20800 -5.74700 3.22100
C -0.25500 -3.42800 3.70100
C 0.71700 -3.48200 4.84800
O 1.93100 -3.25500 4.66900
O 0.03800 -3.55600 6.00300
C 0.94300 -3.58300 7.18300
H -1.85900 3.22000 2.49700
H -0.21800 2.45300 -3.47400
H 0.27600 -3.74700 -2.60500
H -1.55400 -0.94900 5.13200
H -1.58500 1.83100 4.66500
H -3.48400 -0.37700 3.96900
H -3.51100 1.02700 2.85800
H -3.85200 1.30100 4.54300
H 0.66900 1.09600 4.96600
H 1.13000 -0.63900 5.18900
H -0.84400 0.02600 7.12500
H 0.06200 1.47700 6.92100
H -1.34400 5.18600 1.93800
H -1.65100 5.96300 0.43200
H 0.00700 6.02000 1.08400
H -0.63500 6.74400 -1.40500
H 0.66500 6.97000 -2.70400
H 1.04800 6.46600 -1.03600
H 0.60800 0.50100 -4.89100
H -0.69200 -2.15600 -4.54700
H -1.26700 0.74000 -6.12900
H -2.20400 0.71400 -4.59600
H -1.96700 -0.72000 -5.45300
H 1.35600 -1.75900 -5.96700
H 1.45200 -3.15700 -4.90200
H 2.71400 -0.52200 -4.79800
H 3.48700 -2.12100 -4.52900
H 2.49500 -1.30300 -3.24000
H 0.86700 -6.33300 -0.08400
H 0.40400 -5.64200 -1.68000
H -0.89100 -5.99900 -0.46300
H -1.28300 -3.58100 4.02800
H 0.69800 -4.47800 7.75500
H 0.83300 -2.61900 7.68000
H 2.00000 -3.75400 6.97600
Mg 15.77438 1.41448 1.19292
C 15.67763 2.92793 -2.05964
C 15.27869 -1.58562 -0.35249
C 15.40491 0.11024 4.06170
C 15.12013 4.56707 2.52665
N 15.52618 0.87011 -0.93647
C 15.56899 1.52194 -2.08870
C 15.57179 0.60923 -3.34429
C 14.87460 -0.68660 -2.70116
C 15.27659 -0.48161 -1.24203
C 13.35764 -0.65890 -2.78708
C 17.02314 0.29018 -3.84808
C 17.09670 -0.33641 -5.24226
H 18.21950 0.01777 -6.10618
N 15.88545 -0.48256 1.76518
C 15.67653 -1.57614 1.00249
C 15.85824 -2.73055 1.89606
C 16.02926 -2.22584 3.28557
C 15.75302 -0.81674 3.09006
C 15.93718 -4.14324 1.39457
C 16.37072 -2.90186 4.57886
O 16.23252 -2.30782 5.70617
C 16.78274 -4.31056 4.49345
N 15.11924 2.17478 3.01366
C 15.10466 1.40792 4.11803
C 14.86101 2.23832 5.35556
C 14.95604 3.76121 4.87664
C 15.15856 3.53795 3.36187
C 13.52307 2.00856 6.05807
C 15.96148 4.67448 5.63010
C 17.37764 4.23035 5.34263
N 15.63567 3.42957 0.42596
C 15.32639 4.59971 1.15341
C 15.23607 5.70676 0.17939
C 15.47828 5.09480 -1.05969
C 15.68368 3.70102 -0.87345
C 14.91475 7.05938 0.48482
C 15.59640 5.30917 -2.48405
O 15.60521 6.29813 -3.21590
C 15.60551 3.89465 -3.20893
C 16.73568 3.88864 -4.20150
O 17.91618 3.95252 -3.81555
O 16.25002 3.59083 -5.42044
C 17.33496 3.56198 -6.43725
H 14.90030 -2.54273 -0.71255
H 15.37335 -0.26926 5.08564
H 15.01668 5.59727 2.87402
H 14.98005 0.97650 -4.17418
H 15.30905 -1.60340 -3.09116
H 12.99252 0.28574 -3.16191
H 13.00275 -0.82855 -1.77895
H 12.99811 -1.50510 -3.37955
H 17.43692 -0.53221 -3.25042
H 17.63999 1.16704 -3.81300
H 16.14894 -0.24363 -5.78640
H 17.23761 -1.41430 -5.13128
H 15.61237 -4.21781 0.34942
H 15.19329 -4.72253 1.95217
H 16.92147 -4.59055 1.54873
H 15.98938 -4.89134 4.02899
H 17.07123 -4.59268 5.50787
H 17.65313 -4.38098 3.83157
H 15.62579 2.05582 6.10048
H 13.99574 4.28512 4.99145
H 13.63200 1.71531 7.11930
H 12.97461 1.25436 5.50952
H 12.83824 2.85455 6.03529
H 15.82061 4.58284 6.70988
H 15.86131 5.72546 5.38031
H 17.52946 3.41359 6.05463
H 18.07784 5.04411 5.52028
H 17.46075 3.80839 4.33432
H 15.59816 7.67740 -0.08218
H 14.99261 7.25524 1.55223
H 13.87969 7.09777 0.13488
H 14.63584 3.76778 -3.69186
H 17.04694 4.25751 -7.23159
H 17.45354 2.49843 -6.71751
H 18.30193 3.95794 -6.14978

