%nproc=24
%mem=175gb
#p cam-b3lyp/Def2SVP td=(nstates=5)

TDDFT excited states in gaussian

0 1
Mg 7.87381 0.71207 0.59439
C 7.44445 -2.08380 -1.61418
C 7.75792 2.71686 -2.16278
C 8.69850 3.14773 2.45313
C 9.08106 -1.53028 2.97349
N 7.62834 0.25754 -1.55628
C 7.41201 -0.83619 -2.27134
C 7.06627 -0.57250 -3.76147
C 7.75526 0.86975 -3.91661
C 7.68171 1.33338 -2.46323
C 9.21821 0.79742 -4.32143
C 5.51906 -0.49993 -4.01228
C 5.10292 -0.55370 -5.48391
H 3.86543 -1.24624 -5.83244
N 7.70425 2.66732 0.29976
C 7.64868 3.30980 -0.88574
C 7.54599 4.74140 -0.56307
C 7.71142 4.90397 0.90694
C 8.07312 3.55189 1.28261
C 7.23343 5.78738 -1.59345
C 7.57995 6.08416 1.82130
O 8.00136 6.04876 3.03126
C 7.02846 7.31255 1.23106
N 8.95650 0.83082 2.36527
C 9.12470 2.00675 2.99521
C 9.69365 1.80741 4.37975
C 9.64632 0.23031 4.64071
C 9.11780 -0.23775 3.26703
C 11.11940 2.31564 4.59260
C 8.90699 -0.24953 5.91971
C 7.42660 0.03064 5.79586
N 8.04154 -1.43531 0.76374
C 8.60197 -2.16528 1.83479
C 8.59470 -3.58939 1.44200
C 8.04737 -3.58668 0.15014
C 7.75422 -2.25288 -0.24298
C 9.09760 -4.66966 2.22061
C 7.66079 -4.40783 -0.97457
O 7.59541 -5.61836 -1.18454
C 7.37035 -3.45940 -2.21655
C 6.06542 -3.88568 -2.83135
O 5.00035 -3.76499 -2.20075
O 6.26094 -4.16040 -4.13392
C 4.99298 -4.57720 -4.78995
H 7.96276 3.41384 -2.97589
H 8.90322 3.94055 3.17632
H 9.34995 -2.30144 3.69853
H 7.50740 -1.27248 -4.46089
H 7.16584 1.52242 -4.55533
H 9.58608 -0.21787 -4.32300
H 9.75445 1.39300 -3.59425
H 9.36752 1.29230 -5.28534
H 5.16092 0.50452 -3.75234
H 5.00779 -1.26708 -3.46392
H 5.92361 -0.88338 -6.13255
H 4.88691 0.46308 -5.82083
H 7.32883 5.39024 -2.61157
H 8.01784 6.54881 -1.52429
H 6.26393 6.26291 -1.43028
H 7.65164 7.62323 0.39584
H 6.92858 8.01582 2.06010
H 6.03830 7.08860 0.81870
H 9.08392 2.30517 5.12376
H 10.65473 -0.19489 4.75093
H 11.20299 3.04847 5.41725
H 11.47044 2.74624 3.66421
H 11.86157 1.54246 4.78384
H 9.25673 0.30908 6.79137
H 9.05234 -1.30328 6.13296
H 7.34762 1.07893 6.09907
H 6.85739 -0.61637 6.46025
H 7.09943 -0.03605 4.75175
H 8.37382 -5.47037 2.14635
H 9.25875 -4.37303 3.25492
H 10.03797 -4.86526 1.69839
H 8.20423 -3.56515 -2.91156
H 5.17638 -5.55400 -5.24811
H 4.71997 -3.74636 -5.46738
H 4.14702 -4.79924 -4.15003

