%nproc=24
%mem=175gb
#p cam-b3lyp/Def2SVP td=(nstates=5)

TDDFT excited states in gaussian

0 1
Mg 13.14536 1.18166 1.00610
C 13.23736 -2.39385 1.29988
C 12.01022 1.26728 4.22149
C 12.62482 4.28947 0.63463
C 13.17704 0.75937 -2.45314
N 12.71974 -0.42252 2.46820
C 12.85081 -1.74038 2.48857
C 12.62847 -2.38738 3.88195
C 11.71081 -1.24267 4.53495
C 12.19624 -0.04570 3.71991
C 10.22748 -1.43390 4.26568
C 13.96907 -2.57160 4.67622
C 13.86799 -3.47403 5.90795
H 15.00785 -4.32246 6.24462
N 12.89753 2.61295 2.35835
C 12.44914 2.46875 3.62303
C 12.42917 3.82203 4.19957
C 12.74545 4.79648 3.12016
C 12.74780 3.91995 1.96613
C 12.20850 4.08040 5.66175
C 12.99090 6.27497 3.12396
O 13.01287 6.95668 2.03878
C 13.11181 6.91606 4.44149
N 12.71825 2.35057 -0.65930
C 12.59033 3.68483 -0.55303
C 12.55980 4.33995 -1.91328
C 12.93847 3.18646 -2.95427
C 13.03956 1.99101 -1.98161
C 11.22827 4.97260 -2.31722
C 14.13092 3.46467 -3.90996
C 15.41979 3.52734 -3.12238
N 13.38274 -0.47854 -0.35604
C 13.33754 -0.43755 -1.76684
C 13.43480 -1.83151 -2.24624
C 13.50725 -2.59468 -1.07116
C 13.43823 -1.73850 0.06096
C 13.39929 -2.24762 -3.60701
C 13.61571 -3.93075 -0.53092
O 13.79509 -5.04963 -1.01015
C 13.31847 -3.87062 1.02935
C 14.38955 -4.65473 1.73679
O 15.57199 -4.26994 1.71689
O 13.81213 -5.60306 2.49680
C 14.83352 -6.40019 3.22698
H 11.43700 1.39536 5.14013
H 12.55436 5.36356 0.44797
H 13.29237 0.55189 -3.51913
H 12.09278 -3.32894 3.86532
H 11.94070 -1.10516 5.58832
H 10.04430 -2.24584 3.57769
H 9.88144 -0.49792 3.84705
H 9.68663 -1.56091 5.20785
H 14.23198 -1.62210 5.16003
H 14.74856 -2.92713 4.03077
H 12.93908 -4.05713 5.91660
H 13.79590 -2.84188 6.79631
H 11.83902 3.18526 6.17713
H 11.38437 4.79784 5.73888
H 13.08917 4.49963 6.15302
H 12.20319 6.74148 5.01280
H 13.37382 7.95607 4.23748
H 13.92722 6.43353 4.99184
H 13.29869 5.12914 -1.97910
H 12.10591 2.96553 -3.63828
H 11.31384 6.04659 -2.56884
H 10.52216 4.82610 -1.51069
H 10.72466 4.49347 -3.15507
H 14.01250 4.43944 -4.38948
H 14.23273 2.72761 -4.69950
H 15.43123 4.55581 -2.74927
H 16.27337 3.33233 -3.76844
H 15.38217 2.86148 -2.25240
H 14.17155 -2.99625 -3.72392
H 13.55175 -1.40907 -4.28329
H 12.38087 -2.64111 -3.66412
H 12.32664 -4.29476 1.19047
H 14.66174 -7.45039 2.97153
H 14.72873 -6.11700 4.29120
H 15.86930 -6.27765 2.93270

