%nproc=24
%mem=175gb
#p cam-b3lyp/Def2SVP td=(nstates=5)

TDDFT excited states in gaussian

0 1
Mg 0.00000 0.00000 0.00000
C -0.21700 -2.21800 2.80100
C -1.25500 2.44200 2.02600
C -0.24500 1.85000 -2.56400
C 0.14600 -2.82400 -2.03700
N -0.61700 -0.00900 2.12600
C -0.59400 -0.90800 3.10500
C -0.93600 -0.30900 4.50200
C -1.77300 0.96400 4.03200
C -1.15500 1.16800 2.66000
C -3.26300 0.68500 3.86300
C 0.34500 0.11000 5.29900
C 0.12400 0.39700 6.78700
H 1.16800 0.03300 7.73300
N -0.18500 1.96100 -0.15200
C -0.70300 2.80000 0.77700
C -0.62000 4.15600 0.19300
C -0.18700 4.01500 -1.22500
C -0.21400 2.58300 -1.38000
C -0.88700 5.40600 0.97400
C 0.18100 5.01300 -2.27700
O 0.30300 4.69000 -3.50800
C 0.31000 6.41400 -1.83700
N -0.26500 -0.41300 -2.02900
C -0.27900 0.56900 -2.93700
C -0.19600 0.02400 -4.33200
C 0.12400 -1.53300 -4.18000
C 0.08600 -1.63200 -2.63500
C -1.45100 0.20500 -5.19700
C 1.37300 -2.07000 -4.92300
C 2.62600 -1.49000 -4.30600
N 0.15000 -2.14400 0.30300
C 0.17300 -3.13600 -0.68800
C 0.17300 -4.43800 0.00400
C 0.13300 -4.11100 1.35800
C 0.08300 -2.69500 1.50200
C 0.14900 -5.71500 -0.62300
C 0.09600 -4.62900 2.71600
O 0.20800 -5.74700 3.22100
C -0.25500 -3.42800 3.70100
C 0.71700 -3.48200 4.84800
O 1.93100 -3.25500 4.66900
O 0.03800 -3.55600 6.00300
C 0.94300 -3.58300 7.18300
H -1.85900 3.22000 2.49700
H -0.21800 2.45300 -3.47400
H 0.27600 -3.74700 -2.60500
H -1.55400 -0.94900 5.13200
H -1.58500 1.83100 4.66500
H -3.48400 -0.37700 3.96900
H -3.51100 1.02700 2.85800
H -3.85200 1.30100 4.54300
H 0.66900 1.09600 4.96600
H 1.13000 -0.63900 5.18900
H -0.84400 0.02600 7.12500
H 0.06200 1.47700 6.92100
H -1.34400 5.18600 1.93800
H -1.65100 5.96300 0.43200
H 0.00700 6.02000 1.08400
H -0.63500 6.74400 -1.40500
H 0.66500 6.97000 -2.70400
H 1.04800 6.46600 -1.03600
H 0.60800 0.50100 -4.89100
H -0.69200 -2.15600 -4.54700
H -1.26700 0.74000 -6.12900
H -2.20400 0.71400 -4.59600
H -1.96700 -0.72000 -5.45300
H 1.35600 -1.75900 -5.96700
H 1.45200 -3.15700 -4.90200
H 2.71400 -0.52200 -4.79800
H 3.48700 -2.12100 -4.52900
H 2.49500 -1.30300 -3.24000
H 0.86700 -6.33300 -0.08400
H 0.40400 -5.64200 -1.68000
H -0.89100 -5.99900 -0.46300
H -1.28300 -3.58100 4.02800
H 0.69800 -4.47800 7.75500
H 0.83300 -2.61900 7.68000
H 2.00000 -3.75400 6.97600
Mg 15.77265 1.42744 1.20034
C 15.28636 1.52425 4.75466
C 14.60829 4.63205 1.10400
C 15.76259 1.22329 -1.96599
C 15.79847 -2.04940 1.43828
N 15.06979 2.79477 2.79050
C 14.98802 2.74358 4.11150
C 14.64009 4.09702 4.78731
C 13.90575 4.80372 3.54627
C 14.59091 4.06050 2.40135
C 12.41600 4.51065 3.48215
C 15.91950 4.89223 5.22636
C 15.65330 6.07128 6.16483
H 16.63658 6.37110 7.20201
N 15.73268 2.85428 -0.17846
C 15.24437 4.10489 -0.04135
C 15.43074 4.75504 -1.34778
C 15.91811 3.73401 -2.31457
C 15.80096 2.53343 -1.51147
C 15.22802 6.22716 -1.56037
C 16.39675 3.82168 -3.73211
O 16.54694 2.77603 -4.45798
C 16.59496 5.17364 -4.27471
N 15.56795 -0.17478 -0.10861
C 15.65316 0.00380 -1.43856
C 15.75222 -1.31844 -2.16124
C 15.96017 -2.41798 -1.01871
C 15.85130 -1.51190 0.22730
C 14.54648 -1.69910 -3.02011
C 17.19872 -3.34583 -1.15197
C 18.46667 -2.54415 -0.96493
N 15.76588 -0.02202 2.80255
C 15.75314 -1.42876 2.68011
C 15.63481 -1.98345 4.04420
C 15.56317 -0.85167 4.87029
C 15.61166 0.32529 4.07537
C 15.55764 -3.36539 4.37648
C 15.44685 -0.38502 6.23316
O 15.45356 -0.92361 7.33933
C 15.13509 1.17338 6.20883
C 16.05412 1.84630 7.19122
O 17.28303 1.85856 7.00091
O 15.31891 2.54745 8.07340
C 16.18641 3.24190 9.06184
H 14.04654 5.55104 0.93436
H 15.86817 1.09555 -3.04581
H 15.89825 -3.12411 1.60480
H 13.96110 4.02351 5.62835
H 14.13572 5.86515 3.50351
H 12.11770 3.77723 4.21649
H 12.23167 4.14116 2.48188
H 11.84498 5.43935 3.57037
H 16.32215 5.43011 4.35844
H 16.64356 4.23534 5.66780
H 14.64310 6.03918 6.59074
H 15.66731 6.99249 5.57729
H 14.71095 6.68892 -0.71019
H 14.52799 6.33617 -2.39580
H 16.15544 6.74890 -1.80603
H 15.66002 5.72605 -4.21834
H 17.02355 5.02977 -5.26843
H 17.31269 5.70402 -3.63895
H 16.60887 -1.33380 -2.82382
H 15.11540 -3.12078 -0.97098
H 14.80721 -1.89026 -4.07820
H 13.81166 -0.90843 -2.94642
H 13.98784 -2.56673 -2.67321
H 17.24634 -3.77189 -2.15714
H 17.19550 -4.17388 -0.45103
H 18.63575 -2.11475 -1.95695
H 19.28955 -3.19210 -0.66982
H 18.30745 -1.71263 -0.26859
H 16.20221 -3.51632 5.23219
H 15.85436 -3.99292 3.53866
H 14.49059 -3.45352 4.59764
H 14.08547 1.30170 6.47604
H 15.85349 2.92730 10.05576
H 16.10916 4.31912 8.82230
H 17.23356 2.96439 9.09188

