%nproc=24
%mem=175gb
#p cam-b3lyp/Def2SVP td=(nstates=5) density=(transition=1)

TDDFT excited states in gaussian

0 1
Mg 46.26900 25.13700 28.87000
C  47.26400 27.26100 31.45200
C  45.06800 22.98000 31.10200
C  46.59300 22.69600 26.49900
C  47.58600 27.40300 26.57500
N  46.02800 25.20400 31.05400
C  46.48600 26.15500 31.85900
C  45.98900 25.86800 33.32200
C  45.39300 24.44600 33.19000
C  45.51200 24.15500 31.69700
C  46.24000 23.30800 33.94900
C  44.92100 26.90700 33.89400
C  45.18000 27.25800 35.31900
H  44.05100 27.15600 36.33300
N  45.85600 23.12600 28.82000
C  45.33200 22.40200 29.85800
C  44.87200 21.10600 29.34000
C  45.32500 21.03600 27.99300
C  46.00600 22.31800 27.74700
C  44.15900 20.03600 30.22700
C  45.21800 19.84800 26.99000
O  45.63600 19.88000 25.83800
C  44.54500 18.61000 27.44900
N  46.98900 25.03900 26.90500
C  47.10000 23.90200 26.09900
C  47.90400 24.25000 24.81900
C  47.61600 25.80400 24.63200
C  47.36900 26.07600 26.14300
C  49.38900 23.83600 24.90100
C  46.42100 26.18700 23.80600
C  45.03400 26.12100 24.37300
N  47.05200 27.04800 28.89500
C  47.58500 27.84200 27.90600
C  48.07800 29.11700 28.43200
C  48.07000 28.90600 29.88400
C  47.43900 27.61600 30.07900
C  48.67900 30.18600 27.67300
C  48.43700 29.46600 31.17900
O  49.02500 30.43400 31.48700
C  47.84100 28.42700 32.26500
C  48.81200 28.03800 33.35100
O  49.55700 27.06300 33.31900
O  48.64800 28.91100 34.42600
C  49.48500 28.68900 35.61900
H  44.47200 22.24900 31.65300
H  46.68200 21.86300 25.79800
H  47.89200 28.10500 25.79700
H  46.81500 25.79600 34.03000
H  44.37900 24.31000 33.56600
H  45.81000 23.21000 34.94600
H  47.29000 23.54400 34.12000
H  46.10500 22.37300 33.40400
H  43.90600 26.51300 33.84000
H  44.83700 27.84500 33.34500
H  45.39600 28.32500 35.27200
H  46.03100 26.79100 35.81400
H  44.95600 19.41500 30.63500
H  43.40600 19.48400 29.66400
H  43.77200 20.42600 31.16900
H  44.70200 18.21100 28.45100
H  44.79100 17.78900 26.77600
H  43.48800 18.66000 27.18600
H  47.38400 23.69600 24.03800
H  48.47400 26.33800 24.22400
H  50.12500 24.61500 24.70200
H  49.61300 22.90600 24.37800
H  49.63200 23.53200 25.91900
H  46.32100 25.62700 22.87700
H  46.56100 27.21900 23.48400
H  44.87400 27.14600 24.70700
H  44.90600 25.48200 25.24700
H  44.33600 25.84200 23.58300
H  48.36400 31.10800 28.16200
H  48.25000 30.14800 26.67200
H  49.76500 30.10200 27.69900
H  47.00200 28.92500 32.75100
H  50.51900 28.64400 35.27600
H  49.25400 27.73000 36.08200
H  49.44300 29.39800 36.44600
Mg -5.21000 24.54100 27.19500
C  -3.54100 26.38400 29.69300
C  -6.38000 22.49900 29.72600
C  -6.78300 22.59100 24.87600
C  -3.73200 26.39300 24.81700
N  -5.00900 24.47500 29.48500
C  -4.39300 25.40300 30.31600
C  -4.77800 25.15700 31.76100
C  -5.38000 23.70500 31.74000
C  -5.61200 23.56800 30.25200
C  -4.48700 22.58300 32.40100
C  -5.82800 26.14800 32.28500
C  -5.66000 26.57200 33.74800
H  -5.92800 25.52000 34.86000
N  -6.48000 22.85300 27.28100
C  -6.76500 22.19100 28.42600
C  -7.52200 21.02600 28.10100
C  -7.81700 21.04500 26.69400
C  -6.98500 22.14200 26.23200
C  -7.94700 20.03100 29.14500
C  -8.63000 20.10000 25.80900
O  -8.90700 20.38500 24.62300
C  -9.08700 18.72400 26.28000
N  -5.32000 24.55800 25.17000
C  -5.97300 23.61500 24.38200
C  -5.69900 23.91000 22.94300
C  -4.77200 25.17400 22.83700
C  -4.60800 25.45200 24.34000
C  -5.24900 22.67900 22.10000
C  -5.37300 26.38000 22.08300
C  -4.94400 26.45700 20.60500
N  -3.89500 26.01800 27.18100
C  -3.38100 26.77900 26.13200
C  -2.50100 27.90900 26.61000
C  -2.55000 27.71500 28.00000
C  -3.42600 26.62300 28.30100
C  -1.78700 28.93500 25.74900
C  -2.03300 28.27400 29.24000
O  -1.24900 29.20200 29.44300
C  -2.78100 27.47500 30.39000
C  -1.66500 26.98400 31.33300
O  -0.58100 26.54900 31.00300
O  -2.03300 27.27600 32.64500
C  -1.03300 26.85400 33.62600
H  -6.79600 21.92300 30.55500
H  -7.24600 22.04300 24.05300
H  -3.20100 26.86300 23.98700
H  -3.94200 25.15700 32.46000
H  -6.32400 23.59600 32.27400
H  -3.58700 22.93500 32.90600
H  -4.09000 21.81900 31.73300
H  -5.03500 22.07100 33.19200
H  -6.83700 25.75100 32.17600
H  -5.77900 27.08800 31.73500
H  -6.23400 27.46900 33.98000
H  -4.65000 26.93300 33.94100
H  -7.01100 19.85400 29.67500
H  -8.29300 19.05500 28.80500
H  -8.67800 20.40400 29.86200
H  -8.25700 18.16700 26.71500
H  -9.45700 18.28200 25.35500
H  -9.85300 18.80700 27.05100
H  -6.66900 24.06000 22.46800
H  -3.77200 24.98400 22.44500
H  -5.16100 21.82900 22.77700
H  -4.26700 22.88500 21.67500
H  -6.05700 22.54500 21.38000
H  -5.16500 27.26900 22.67800
H  -6.45400 26.27700 21.98600
H  -4.65800 25.46600 20.25200
H  -4.05700 27.05100 20.38400
H  -5.81000 26.77000 20.02100
H  -2.54700 29.61400 25.36200
H  -1.26100 28.53800 24.88100
H  -1.10500 29.45700 26.42000
H  -3.50500 28.04800 30.96900
H  -1.16000 25.83800 34.00100
H  -1.12400 27.59400 34.42100
H  0.01800 26.83100 33.33800


