%nproc=24
%mem=175gb
#p cam-b3lyp/Def2SVP td=(nstates=5)

TDDFT excited states in gaussian

0 1
Mg 1.39700 7.67200 26.33400
C  1.72400 9.74100 29.05100
C  2.01300 4.99100 28.38100
C  1.18200 5.57500 23.58000
C  1.22200 10.43500 24.24700
N  1.88100 7.36900 28.50400
C  1.86000 8.39700 29.40300
C  2.08800 7.91400 30.75300
C  2.40000 6.43300 30.60700
C  2.12200 6.20500 29.05700
C  3.81300 5.91300 31.04400
C  0.86900 8.21500 31.69000
C  1.18400 8.50600 33.19800
H  2.44800 7.85400 33.79200
N  1.46600 5.54900 26.07500
C  1.71900 4.62900 27.07800
C  1.70700 3.27200 26.49500
C  1.45400 3.42700 25.06400
C  1.33100 4.87900 24.84700
C  1.96100 1.99300 27.27600
C  1.22600 2.33500 24.04500
O  0.94200 2.65000 22.87600
C  1.34900 0.88300 24.32000
N  1.30400 7.94800 24.20100
C  1.17000 6.94200 23.33200
C  0.89900 7.47700 21.91600
C  0.64800 9.06900 22.12400
C  1.00600 9.14600 23.65000
C  2.06300 7.12000 20.94100
C  -0.80600 9.55500 21.87400
C  -1.00500 10.45600 20.64600
N  1.52400 9.70800 26.54100
C  1.45100 10.73400 25.59600
C  1.56500 12.05000 26.26300
C  1.69000 11.65900 27.61700
C  1.66900 10.24300 27.72900
C  1.49300 13.37100 25.67200
C  1.73800 12.19000 28.99500
O  1.68200 13.31300 29.42100
C  1.80500 10.95700 29.96500
C  2.97400 11.12000 30.84400
O  4.12200 10.98100 30.39200
O  2.68100 11.28600 32.16300
C  3.77100 11.25200 33.13300
H  2.21100 4.15900 29.06000
H  1.15400 4.90100 22.72100
H  1.03400 11.27000 23.56900
H  2.96600 8.42700 31.14700
H  1.62000 5.81700 31.05600
H  4.56300 6.57700 31.47500
H  4.27400 5.43500 30.18000
H  3.77100 5.07400 31.73900
H  0.12500 7.42500 31.58700
H  0.27300 9.01100 31.24400
H  0.33700 8.21300 33.81900
H  1.41300 9.55400 33.38900
H  2.02800 2.15000 28.35200
H  2.91300 1.54300 26.99300
H  1.08700 1.34400 27.22400
H  1.03600 0.37200 23.41000
H  0.74800 0.54700 25.16600
H  2.36800 0.65900 24.63600
H  -0.06900 7.08000 21.61000
H  1.35900 9.68000 21.56800
H  1.72500 6.67300 20.00600
H  2.74700 6.40500 21.39900
H  2.59200 8.06400 20.80800
H  -1.22600 10.10700 22.71400
H  -1.49800 8.72100 21.75500
H  -0.24900 10.22000 19.89700
H  -0.86300 11.48900 20.96200
H  -2.04500 10.34200 20.34300
H  1.26400 14.14800 26.40100
H  0.76200 13.44400 24.86700
H  2.50500 13.65900 25.38700
H  0.85200 11.05500 30.48600
H  4.47400 12.08100 33.04700
H  4.27000 10.28300 33.12600
H  3.36500 11.36600 34.13800
Mg 47.67100 15.89000 28.45400
C  45.34400 15.65500 31.04800
C  49.48000 18.07500 30.51500
C  49.68700 16.65900 25.89600
C  45.30600 14.62100 26.30000
N  47.50700 16.71700 30.64000
C  46.40900 16.47700 31.40500
C  46.52000 17.23500 32.78700
C  47.75800 18.22000 32.48000
C  48.27100 17.69900 31.12700
C  47.16600 19.65600 32.25100
C  46.90400 16.16800 33.87700
C  47.20400 16.68600 35.31000
H  48.31600 16.29900 36.23900
N  49.43000 17.01400 28.32000
C  50.06900 17.82700 29.27100
C  51.20000 18.39100 28.66300
C  51.38300 17.85100 27.39700
C  50.14500 17.12800 27.15700
C  52.11500 19.27100 29.45000
C  52.51500 18.07600 26.34100
O  52.57400 17.52300 25.24800
C  53.78800 18.86100 26.66900
N  47.44200 15.76700 26.39600
C  48.48400 16.01700 25.57200
C  48.26000 15.53000 24.12700
C  46.80100 15.00400 24.22400
C  46.51000 15.00800 25.71400
C  48.61100 16.58300 23.02400
C  46.48600 13.65000 23.53100
C  46.96600 12.43800 24.21000
N  45.75600 15.16700 28.59900
C  44.93800 14.69700 27.68600
C  43.69800 14.18000 28.27400
C  43.86300 14.56100 29.64400
C  45.08900 15.18100 29.78600
C  42.77800 13.18000 27.74800
C  43.21100 14.49100 30.94000
O  42.19200 13.93500 31.28200
C  44.14500 15.27600 31.86900
C  43.41900 16.43800 32.55500
O  43.17000 17.49000 32.02600
O  43.04200 16.05500 33.82000
C  42.33900 17.13300 34.55300
H  50.09800 18.64700 31.20900
H  50.41400 16.70200 25.08200
H  44.81200 14.14000 25.45400
H  45.63400 17.83000 33.01000
H  48.52200 18.24600 33.25800
H  47.13800 20.01300 31.22200
H  47.84000 20.42900 32.62100
H  46.16600 19.79300 32.66200
H  47.75800 15.61000 33.49400
H  46.09800 15.43400 33.89800
H  46.24800 16.58700 35.82500
H  47.42100 17.73200 35.09700
H  51.80300 19.48300 30.47300
H  52.34700 20.14300 28.83700
H  53.02500 18.67700 29.53900
H  53.61800 19.92500 26.83400
H  54.61200 18.70300 25.97300
H  54.19200 18.41700 27.57900
H  49.00300 14.73300 24.13500
H  46.20400 15.80500 23.78800
H  49.40000 17.25400 23.36200
H  47.72600 17.18100 22.80500
H  48.98600 16.12600 22.10800
H  46.99700 13.77600 22.57700
H  45.42300 13.59700 23.29500
H  46.25100 12.14600 24.97900
H  47.97200 12.58100 24.60400
H  46.98800 11.57800 23.54000
H  43.37600 12.59600 27.04800
H  41.93300 13.49000 27.13300
H  42.41600 12.61300 28.60500
H  44.52600 14.58100 32.61800
H  41.57800 16.67700 35.18600
H  41.70900 17.79000 33.95300
H  43.02300 17.66800 35.21100


