%nproc=24
%mem=175gb
#p cam-b3lyp/Def2SVP td=(nstates=5)

TDDFT excited states in gaussian

0 1
Mg 52.53200 24.27200 45.27800
C  49.69500 26.14500 43.97100
C  51.04500 21.43900 44.03200
C  55.55800 22.86200 45.08400
C  53.78600 27.15600 46.56500
N  50.65200 23.90000 43.94600
C  49.60000 24.82500 43.60600
C  48.41500 24.05300 43.01900
C  48.70000 22.56700 43.38700
C  50.22600 22.57000 43.84000
C  47.76900 22.00700 44.56400
C  48.04400 24.34300 41.59400
C  49.09500 25.06000 40.71400
H  48.96900 25.39700 39.21700
N  53.20200 22.33000 44.76700
C  52.42300 21.31600 44.25500
C  53.27600 20.09300 44.13100
C  54.57100 20.56600 44.32700
C  54.53600 21.98000 44.69300
C  52.68600 18.78600 43.73500
C  55.85700 19.70500 44.16100
O  55.72900 18.56500 43.75100
C  57.24900 20.21900 44.32400
N  54.40600 25.03400 45.62800
C  55.48900 24.15600 45.60300
C  56.74800 24.82300 46.15700
C  56.16900 26.07400 46.91200
C  54.72900 26.07700 46.39400
C  57.69100 23.98800 47.06100
C  56.92500 27.42300 46.68900
C  57.79700 27.94700 47.92000
N  51.87600 26.25900 45.36900
C  52.48600 27.32200 46.01900
C  51.58600 28.44900 46.02500
C  50.55800 28.02100 45.17400
C  50.79100 26.66600 44.83200
C  51.91200 29.79900 46.68700
C  49.30500 28.37700 44.58200
O  48.71800 29.46600 44.74300
C  48.58400 27.14400 43.87700
C  48.23600 27.64400 42.53200
O  48.98500 28.23500 41.74700
O  46.97500 27.21700 42.27700
C  46.32700 27.76200 41.04300
H  50.57900 20.54200 43.62000
H  56.53800 22.38300 45.02800
H  54.16100 28.03300 47.09600
H  47.65100 24.44400 43.69100
H  48.71700 21.90900 42.51800
H  47.15300 21.26400 44.05900
H  47.21300 22.83200 45.01000
H  48.44700 21.51600 45.26300
H  47.08700 24.86300 41.63300
H  47.84600 23.33500 41.22800
H  49.99900 24.46000 40.82300
H  49.29400 26.05200 41.12000
H  53.06600 18.57900 42.73500
H  51.60100 18.88400 43.75400
H  52.95100 18.03100 44.47600
H  57.60500 20.97300 43.62300
H  58.00300 19.45100 44.15400
H  57.23000 20.50700 45.37500
H  57.21200 25.04800 45.19600
H  56.15200 25.77400 47.96000
H  58.56700 23.60300 46.53800
H  57.16500 23.10200 47.41500
H  57.94800 24.60600 47.92200
H  56.28400 28.25100 46.38500
H  57.54500 27.23200 45.81300
H  58.71300 28.26700 47.42400
H  58.01300 27.19900 48.68300
H  57.20100 28.70700 48.42400
H  51.05000 30.36300 47.04400
H  52.35800 30.33200 45.84800
H  52.47600 29.64100 47.60600
H  47.71400 26.85200 44.46700
H  45.32600 27.34000 40.94700
H  46.88700 27.48700 40.14900
H  46.32300 28.83200 41.24600
Mg 46.69300 44.58300 44.38700
C  43.25500 44.72400 43.60300
C  46.82600 41.39700 42.97300
C  50.08000 44.92600 44.22900
C  46.41600 48.03600 45.29800
N  45.21700 43.25300 43.45800
C  43.91500 43.52200 43.22400
C  43.24400 42.37600 42.39900
C  44.33300 41.22100 42.58000
C  45.59600 41.99100 43.08500
C  44.09700 40.05700 43.56900
C  43.05200 42.86300 40.91300
C  41.75200 42.34300 40.23900
H  41.89600 41.90400 38.72500
N  48.30200 43.23100 43.87300
C  48.09600 41.97500 43.36700
C  49.37200 41.38600 43.21500
C  50.37100 42.36600 43.49200
C  49.61800 43.58400 43.94300
C  49.62300 39.97500 42.73800
C  51.83400 42.25100 43.23000
O  52.31500 41.27900 42.67000
C  52.80700 43.26800 43.53300
N  48.03900 46.33200 44.62600
C  49.42400 46.11300 44.66400
C  50.13700 47.33600 45.15000
C  48.99300 48.37700 45.43900
C  47.74400 47.57600 45.11400
C  50.98200 46.96700 46.37600
C  49.23100 49.78300 44.77000
C  49.25400 50.97200 45.68200
N  45.14700 46.13000 44.49400
C  45.21100 47.43000 44.93200
C  43.85400 48.01300 45.01800
C  43.09500 46.96600 44.43100
C  43.89400 45.85700 44.22500
C  43.42700 49.41800 45.41300
C  41.78600 46.66700 43.91400
O  40.77400 47.38200 43.84700
C  41.78000 45.23600 43.37700
C  40.72900 44.42700 44.02200
O  39.86700 43.90600 43.41200
O  40.96200 44.18000 45.34400
C  40.02400 43.15900 45.85900
H  46.89000 40.36900 42.60900
H  51.17100 44.93400 44.24400
H  46.14300 49.07400 45.50200
H  42.28400 42.14500 42.86100
H  44.78800 40.86200 41.65700
H  43.41900 40.36700 44.36500
H  44.98600 39.61600 44.02000
H  43.58300 39.28600 42.99600
H  43.92400 42.61300 40.30800
H  43.01600 43.95000 40.98600
H  41.07000 43.18900 40.32600
H  41.42600 41.56000 40.92400
H  50.58400 39.53700 43.00800
H  49.53400 40.05600 41.65500
H  48.81600 39.25800 42.88900
H  52.77800 43.41800 44.61300
H  52.61000 44.18200 42.97200
H  53.79000 42.90400 43.23400
H  50.70700 47.79400 44.34200
H  48.71000 48.54100 46.47900
H  51.11500 45.89200 46.50000
H  50.52200 47.31200 47.30200
H  52.01900 47.25200 46.20100
H  48.42600 49.87600 44.04100
H  50.21400 49.89500 44.31400
H  48.51600 51.67900 45.30400
H  50.21500 51.48600 45.65500
H  49.14300 50.70900 46.73400
H  43.51500 50.13100 44.59300
H  43.93200 49.78600 46.30700
H  42.35600 49.27300 45.55400
H  41.46600 45.23800 42.33400
H  40.25400 43.00100 46.91300
H  40.12100 42.22900 45.29900
H  38.98500 43.48400 45.90100


