%nproc=24
%mem=175gb
#p cam-b3lyp/Def2SVP td=(nstates=5)

TDDFT excited states in gaussian

0 1
Mg -10.08900 40.79200 42.94700
C  -8.61600 37.87300 41.73900
C  -7.78200 42.64100 41.17400
C  -11.69100 43.40600 44.11700
C  -13.01100 38.80800 43.84600
N  -8.29800 40.23100 41.61500
C  -7.89900 38.98100 41.23300
C  -6.67800 39.04800 40.38600
C  -6.44000 40.59600 40.17200
C  -7.57700 41.25700 41.04500
C  -4.98600 41.06900 40.42300
C  -6.83200 38.29900 39.04000
C  -5.67600 37.32300 38.82800
H  -4.88500 37.42500 37.48900
N  -9.75400 42.76600 42.70300
C  -8.72900 43.36600 41.97300
C  -8.87200 44.79700 42.20800
C  -10.00600 45.05500 43.11000
C  -10.52500 43.68700 43.42700
C  -8.10300 45.78800 41.48800
C  -10.49500 46.41500 43.39200
O  -9.97600 47.42800 42.97200
C  -11.74500 46.70800 44.14600
N  -12.01700 41.03600 43.77600
C  -12.30900 42.20100 44.43900
C  -13.68100 42.11000 45.07300
C  -14.24200 40.84200 44.54700
C  -13.08300 40.19800 43.96600
C  -13.70800 42.29100 46.64600
C  -15.26700 41.05700 43.38100
C  -16.32200 40.05900 43.24400
N  -10.72900 38.74300 42.86600
C  -11.88000 38.08300 43.31600
C  -11.64700 36.67300 43.29400
C  -10.42100 36.52600 42.65600
C  -9.90000 37.83800 42.36900
C  -12.60800 35.66600 43.80900
C  -9.50700 35.58200 42.14800
O  -9.55000 34.37200 42.15700
C  -8.30600 36.38400 41.59900
C  -7.07900 35.93500 42.27600
O  -6.65100 36.36600 43.36000
O  -6.55600 34.85100 41.60900
C  -5.28400 34.28000 42.02100
H  -6.98400 43.15900 40.63900
H  -12.35200 44.18100 44.51300
H  -13.89800 38.25100 44.15500
H  -5.86700 38.79100 41.06800
H  -6.60400 40.92400 39.14600
H  -4.42500 40.13600 40.35700
H  -4.81000 41.64900 41.32900
H  -4.66100 41.71400 39.60700
H  -6.76000 38.94200 38.16300
H  -7.79900 37.79800 39.08100
H  -6.24400 36.39600 38.75100
H  -5.06200 37.35000 39.72700
H  -7.39900 45.26300 40.84200
H  -7.46100 46.42800 42.09400
H  -8.77100 46.37100 40.85300
H  -11.59200 46.04300 44.99600
H  -12.59700 46.39100 43.54400
H  -11.78600 47.75300 44.45400
H  -14.19200 42.98500 44.67300
H  -14.60800 40.10900 45.26600
H  -12.74000 42.63900 47.00700
H  -14.11000 41.44200 47.20000
H  -14.30700 43.14200 46.96900
H  -14.72400 41.14600 42.44000
H  -15.78500 42.00900 43.49600
H  -17.15500 40.34300 43.88800
H  -15.96800 39.05000 43.45800
H  -16.80100 40.16400 42.27000
H  -13.09400 36.01500 44.72000
H  -12.17300 34.67900 43.96700
H  -13.39900 35.66300 43.05900
H  -8.06700 36.13500 40.56500
H  -5.23500 33.70700 42.94700
H  -4.52300 35.06000 42.03400
H  -5.07200 33.53500 41.25500
Mg -5.09800 24.63300 26.68400
C  -3.70200 26.36700 29.52200
C  -6.11300 22.14300 28.93500
C  -6.48000 23.09600 24.13300
C  -3.72900 27.06700 24.58100
N  -4.87100 24.33000 29.01500
C  -4.47600 25.23800 29.94600
C  -4.87000 24.81900 31.35300
C  -5.34300 23.26900 31.18300
C  -5.42800 23.22100 29.63000
C  -4.42000 22.22500 31.86000
C  -5.97200 25.74300 31.97300
C  -5.56400 26.39400 33.32000
H  -6.48200 25.91600 34.58700
N  -6.12400 22.92100 26.55900
C  -6.45400 21.95500 27.56900
C  -7.23800 20.80800 27.05300
C  -7.37200 21.15200 25.66800
C  -6.65700 22.41400 25.41400
C  -7.70400 19.61500 27.89000
C  -8.01000 20.37100 24.58300
O  -8.30600 20.80000 23.47300
C  -8.47200 18.93600 24.90400
N  -5.23600 25.12700 24.71500
C  -5.84300 24.30800 23.82600
C  -5.57400 24.69000 22.39700
C  -4.73400 25.98700 22.49800
C  -4.58300 26.13300 24.02900
C  -4.97900 23.58700 21.54700
C  -5.55400 27.25800 21.86300
C  -4.76800 28.10300 20.72000
N  -3.71900 26.23300 26.92800
C  -3.33300 27.18000 25.94900
C  -2.55400 28.22500 26.62300
C  -2.81300 27.99000 27.99900
C  -3.40400 26.73200 28.12600
C  -1.71900 29.35800 26.03400
C  -2.39200 28.46300 29.34800
O  -1.66000 29.39300 29.78700
C  -3.08100 27.46800 30.36000
C  -2.03500 26.94900 31.30200
O  -0.94600 26.57900 30.96500
O  -2.47500 27.07900 32.59000
C  -1.38400 26.91100 33.58300
H  -6.28600 21.33800 29.65200
H  -6.91400 22.63300 23.24400
H  -3.32400 27.85900 23.94800
H  -3.94900 24.82500 31.93600
H  -6.36100 23.10200 31.53600
H  -3.94100 21.58900 31.11500
H  -4.98800 21.61200 32.56100
H  -3.64700 22.62700 32.51500
H  -6.89500 25.19600 32.16700
H  -6.22100 26.57200 31.31000
H  -5.77000 27.46400 33.35800
H  -4.50500 26.32600 33.56700
H  -7.71300 19.74200 28.97300
H  -7.20000 18.67100 27.68300
H  -8.74200 19.45800 27.59500
H  -7.62000 18.31700 25.18500
H  -9.03200 18.48700 24.08300
H  -9.15600 18.98900 25.75100
H  -6.53500 24.86100 21.91000
H  -3.75100 25.85800 22.04600
H  -5.68000 23.16900 20.82400
H  -4.66700 22.69800 22.09500
H  -4.09700 23.98900 21.04800
H  -5.86900 27.99500 22.60100
H  -6.48500 26.95600 21.38400
H  -4.00100 27.42900 20.33800
H  -4.32800 29.01700 21.12100
H  -5.40200 28.28200 19.85200
H  -1.71900 30.24300 26.67000
H  -2.23000 29.70200 25.13400
H  -0.77900 28.87000 25.77600
H  -3.74400 28.08300 30.96800
H  -0.90300 25.95500 33.37700
H  -1.91800 26.79500 34.52600
H  -0.58100 27.64700 33.62200


