%nproc=24
%mem=175gb
#p cam-b3lyp/Def2SVP td=(nstates=5)

TDDFT excited states in gaussian

0 1
Mg 6.73600 57.36100 41.87100
C  5.57600 54.03200 41.84400
C  9.54700 56.26000 40.29200
C  7.50300 60.62700 41.21800
C  3.48900 58.25400 43.03700
N  7.42000 55.35200 41.01200
C  6.89900 54.10900 41.23100
C  7.68800 53.00900 40.50000
C  9.08300 53.80000 40.39600
C  8.66300 55.23700 40.58100
C  10.16800 53.39100 41.42800
C  7.12500 52.63700 39.05500
C  7.43400 51.26500 38.47600
H  8.38100 51.07500 37.27200
N  8.34400 58.41300 40.90600
C  9.44600 57.74300 40.46000
C  10.47100 58.62900 40.12400
C  9.93400 59.94200 40.40300
C  8.52300 59.74000 40.83800
C  11.84700 58.22300 39.61000
C  10.74100 61.20700 40.21700
O  11.93000 61.13100 39.81300
C  10.22200 62.63600 40.60600
N  5.63100 59.10700 42.11600
C  6.19700 60.37100 41.79700
C  5.36400 61.47100 42.39400
C  3.99000 60.81500 42.65100
C  4.37000 59.30600 42.68800
C  5.80500 62.13900 43.71600
C  2.94100 61.09300 41.45000
C  2.15100 62.39300 41.46200
N  4.97100 56.31000 42.51500
C  3.75500 56.80200 42.96500
C  2.84300 55.78700 43.18500
C  3.53400 54.62400 42.80400
C  4.81800 55.00700 42.38100
C  1.45400 55.97300 43.70900
C  3.46600 53.25900 42.78000
O  2.61500 52.50900 43.21600
C  4.68000 52.84700 41.92100
C  4.09400 52.40300 40.61400
O  3.41000 53.09000 39.92100
O  4.40200 51.06200 40.37800
C  3.73000 50.54700 39.23600
H  10.54100 55.93300 39.97900
H  7.77500 61.68500 41.22200
H  2.57200 58.59300 43.52300
H  7.89200 52.14900 41.13700
H  9.49500 53.56500 39.41500
H  10.79300 52.70800 40.85200
H  9.75000 52.84400 42.27300
H  10.76800 54.24600 41.74000
H  7.52400 53.32000 38.30500
H  6.05400 52.83900 39.08200
H  6.45300 50.86600 38.21400
H  7.81100 50.65000 39.29300
H  12.72600 58.79500 39.90900
H  11.62200 58.24700 38.54400
H  12.11100 57.23800 39.99500
H  10.03600 62.67400 41.67900
H  9.32800 62.73100 39.99000
H  10.83200 63.47600 40.27400
H  5.23800 62.21700 41.61000
H  3.54200 61.14600 43.58800
H  5.15700 61.94700 44.57100
H  6.23700 63.12400 43.53800
H  6.70300 61.58800 43.99500
H  2.28600 60.23100 41.57500
H  3.43700 61.03400 40.48100
H  2.26900 62.89100 40.50000
H  2.53500 63.03900 42.25200
H  1.08300 62.20800 41.58000
H  0.80400 55.41700 43.03400
H  1.12000 57.01000 43.65700
H  1.32300 55.57400 44.71500
H  5.17600 52.01400 42.41800
H  2.78900 50.09000 39.54100
H  4.23500 49.69300 38.78300
H  3.52200 51.31600 38.49400
Mg 8.73000 48.00700 24.72600
C  6.54700 48.35400 27.54300
C  11.38500 48.83200 26.74200
C  10.78900 48.16000 22.05300
C  5.85600 48.14800 22.68600
N  8.91100 48.51400 26.88400
C  7.92400 48.53400 27.88200
C  8.57600 48.79800 29.21500
C  9.96600 49.43600 28.79200
C  10.09000 48.94100 27.32100
C  9.83300 50.99700 28.89900
C  8.62100 47.55100 30.16700
C  8.25400 47.92900 31.51300
H  7.91700 46.69900 32.49700
N  10.84000 48.27700 24.55100
C  11.74400 48.56500 25.49500
C  13.05300 48.54500 24.91800
C  12.92300 48.37200 23.55600
C  11.42000 48.19500 23.29600
C  14.33000 48.90700 25.74100
C  14.02400 48.24600 22.48300
O  13.70400 48.13100 21.32700
C  15.48100 48.17400 22.87500
N  8.33400 48.41200 22.66100
C  9.38600 48.28200 21.76100
C  8.87500 48.15200 20.36300
C  7.28100 48.12500 20.55900
C  7.12600 48.16700 22.06100
C  9.40100 49.20400 19.44600
C  6.46300 46.89200 19.88400
C  5.44500 47.20900 18.86100
N  6.61400 48.15800 24.98900
C  5.61400 48.20500 24.04400
C  4.27700 48.23000 24.78200
C  4.59000 48.17400 26.15500
C  6.02700 48.18500 26.22900
C  2.90700 48.32700 24.09700
C  3.98700 48.26800 27.45000
O  2.78100 48.32100 27.78100
C  5.21700 48.56000 28.40400
C  5.00500 47.63900 29.64300
O  5.64000 46.57500 29.76100
O  4.15000 48.22900 30.51400
C  3.80400 47.24100 31.59300
H  12.25300 48.87100 27.40400
H  11.43600 48.18800 21.17300
H  4.90900 48.09600 22.14500
H  8.00400 49.60800 29.66700
H  10.77600 49.10700 29.44200
H  9.23900 51.44000 28.10000
H  10.83100 51.43100 28.94300
H  9.35800 51.24300 29.84900
H  9.67300 47.28200 30.26500
H  8.05700 46.70900 29.76500
H  7.29600 48.44900 31.52800
H  9.07600 48.51700 31.92200
H  14.96900 48.03700 25.59000
H  14.16900 49.02000 26.81300
H  14.74800 49.84700 25.38100
H  16.11600 48.17200 21.98900
H  15.42200 47.21200 23.38400
H  15.69700 49.01800 23.53000
H  9.23500 47.16500 20.07200
H  6.89900 49.04100 20.10900
H  10.07700 48.66800 18.78100
H  10.03800 49.93000 19.95100
H  8.64800 49.76300 18.89000
H  5.91200 46.49600 20.73700
H  7.19200 46.14700 19.56800
H  4.44900 46.91600 19.19200
H  5.77800 46.47600 18.12700
H  5.55100 48.21100 18.44300
H  2.66500 49.38900 24.07600
H  2.13000 47.78700 24.63800
H  2.97200 47.86900 23.11000
H  5.09400 49.61500 28.64500
H  3.12300 46.44700 31.28700
H  3.39400 47.68200 32.50100
H  4.75700 46.82700 31.92300


