%nproc=24
%mem=175gb
#p cam-b3lyp/Def2SVP td=(nstates=5) density=(transition=1)

TDDFT excited states in gaussian

0 1
Mg 26.07000 0.32300 29.17500
C  27.93000 0.00300 32.17200
C  23.23700 0.37300 31.22200
C  24.20000 0.73500 26.50800
C  28.89900 -0.55900 27.35600
N  25.68800 0.23300 31.42600
C  26.58700 0.25300 32.44900
C  25.99300 0.25100 33.86800
C  24.43500 0.24800 33.45400
C  24.48700 0.27000 31.95500
C  23.63400 -1.02300 33.94300
C  26.39900 1.50900 34.70300
C  27.30600 1.47800 35.92700
H  27.07500 2.41400 37.10600
N  24.00400 0.60600 28.87400
C  22.98600 0.52400 29.83500
C  21.72400 0.61300 29.13500
C  21.97300 0.88000 27.79100
C  23.44300 0.80400 27.68300
C  20.46800 0.64800 29.93700
C  21.02800 1.08200 26.60700
O  21.39200 1.28100 25.44400
C  19.58500 1.18400 26.91000
N  26.42900 0.02500 27.20000
C  25.57000 0.46200 26.23000
C  26.30100 0.60400 24.85200
C  27.70600 0.10100 25.15700
C  27.68000 -0.24400 26.67200
C  25.55900 -0.10800 23.67400
C  28.73300 1.18300 24.79000
C  29.96300 0.77300 24.06500
N  28.00500 -0.28200 29.61000
C  29.05600 -0.58000 28.78000
C  30.24500 -0.86800 29.52500
C  29.92400 -0.56000 30.93700
C  28.52000 -0.19800 30.89800
C  31.58600 -1.33700 28.93500
C  30.40700 -0.48700 32.33900
O  31.55800 -0.58600 32.79700
C  29.11500 -0.11100 33.17500
C  29.05800 -1.28400 34.10300
O  28.53100 -2.37500 33.92200
O  29.56000 -0.97800 35.26800
C  29.75400 -2.03800 36.28700
H  22.46700 0.52900 31.98000
H  23.69600 0.81600 25.54300
H  29.79300 -0.76400 26.76400
H  26.26300 -0.69600 34.33700
H  23.82700 1.11200 33.72400
H  24.21800 -1.88400 34.26700
H  22.99700 -1.39000 33.13900
H  22.99100 -0.72400 34.77100
H  25.46900 1.94600 35.06700
H  26.90100 2.23700 34.06700
H  28.23400 1.84700 35.49000
H  27.27900 0.42100 36.19200
H  19.92700 1.58400 29.80500
H  20.67800 0.53600 31.00100
H  19.76300 -0.13800 29.66800
H  19.43300 1.90200 27.71600
H  19.18900 0.27500 27.36300
H  18.97400 1.53500 26.07900
H  26.25300 1.68100 24.69200
H  27.96600 -0.74800 24.52500
H  24.56100 -0.46700 23.92500
H  26.08600 -0.97800 23.28400
H  25.56500 0.53500 22.79400
H  29.00400 1.58600 25.76500
H  28.34900 1.97700 24.15000
H  30.78000 1.14300 24.68400
H  29.93300 1.13400 23.03700
H  30.14200 -0.30200 24.03500
H  31.60000 -2.42600 28.91000
H  32.38900 -0.93100 29.55000
H  31.71700 -1.01400 27.90200
H  29.35100 0.80400 33.71800
H  28.83300 -2.53300 36.59300
H  30.27100 -1.70300 37.18600
H  30.41000 -2.86500 36.01700
Mg 46.26900 25.13700 28.87000
C  47.26400 27.26100 31.45200
C  45.06800 22.98000 31.10200
C  46.59300 22.69600 26.49900
C  47.58600 27.40300 26.57500
N  46.02800 25.20400 31.05400
C  46.48600 26.15500 31.85900
C  45.98900 25.86800 33.32200
C  45.39300 24.44600 33.19000
C  45.51200 24.15500 31.69700
C  46.24000 23.30800 33.94900
C  44.92100 26.90700 33.89400
C  45.18000 27.25800 35.31900
H  44.05100 27.15600 36.33300
N  45.85600 23.12600 28.82000
C  45.33200 22.40200 29.85800
C  44.87200 21.10600 29.34000
C  45.32500 21.03600 27.99300
C  46.00600 22.31800 27.74700
C  44.15900 20.03600 30.22700
C  45.21800 19.84800 26.99000
O  45.63600 19.88000 25.83800
C  44.54500 18.61000 27.44900
N  46.98900 25.03900 26.90500
C  47.10000 23.90200 26.09900
C  47.90400 24.25000 24.81900
C  47.61600 25.80400 24.63200
C  47.36900 26.07600 26.14300
C  49.38900 23.83600 24.90100
C  46.42100 26.18700 23.80600
C  45.03400 26.12100 24.37300
N  47.05200 27.04800 28.89500
C  47.58500 27.84200 27.90600
C  48.07800 29.11700 28.43200
C  48.07000 28.90600 29.88400
C  47.43900 27.61600 30.07900
C  48.67900 30.18600 27.67300
C  48.43700 29.46600 31.17900
O  49.02500 30.43400 31.48700
C  47.84100 28.42700 32.26500
C  48.81200 28.03800 33.35100
O  49.55700 27.06300 33.31900
O  48.64800 28.91100 34.42600
C  49.48500 28.68900 35.61900
H  44.47200 22.24900 31.65300
H  46.68200 21.86300 25.79800
H  47.89200 28.10500 25.79700
H  46.81500 25.79600 34.03000
H  44.37900 24.31000 33.56600
H  45.81000 23.21000 34.94600
H  47.29000 23.54400 34.12000
H  46.10500 22.37300 33.40400
H  43.90600 26.51300 33.84000
H  44.83700 27.84500 33.34500
H  45.39600 28.32500 35.27200
H  46.03100 26.79100 35.81400
H  44.95600 19.41500 30.63500
H  43.40600 19.48400 29.66400
H  43.77200 20.42600 31.16900
H  44.70200 18.21100 28.45100
H  44.79100 17.78900 26.77600
H  43.48800 18.66000 27.18600
H  47.38400 23.69600 24.03800
H  48.47400 26.33800 24.22400
H  50.12500 24.61500 24.70200
H  49.61300 22.90600 24.37800
H  49.63200 23.53200 25.91900
H  46.32100 25.62700 22.87700
H  46.56100 27.21900 23.48400
H  44.87400 27.14600 24.70700
H  44.90600 25.48200 25.24700
H  44.33600 25.84200 23.58300
H  48.36400 31.10800 28.16200
H  48.25000 30.14800 26.67200
H  49.76500 30.10200 27.69900
H  47.00200 28.92500 32.75100
H  50.51900 28.64400 35.27600
H  49.25400 27.73000 36.08200
H  49.44300 29.39800 36.44600


