%nproc=24
%mem=175gb
#p cam-b3lyp/Def2SVP td=(nstates=5) density=(transition=1)

TDDFT excited states in gaussian

0 1
Mg 35.26200 1.75200 29.96200
C  32.85500 2.58300 32.32000
C  37.64200 1.80100 32.35100
C  37.51600 1.12500 27.56800
C  32.74800 1.88400 27.52800
N  35.16600 2.13300 32.11400
C  34.11900 2.35200 32.87300
C  34.63200 2.45300 34.38300
C  36.03300 2.95200 34.09900
C  36.35200 2.21400 32.76000
C  36.05200 4.49500 34.04900
C  34.37500 1.08800 35.15500
C  34.37600 1.20900 36.68200
H  34.84400 2.50900 37.31300
N  37.24000 1.32700 29.98300
C  38.04600 1.32500 31.11900
C  39.36800 0.74800 30.73100
C  39.37200 0.59900 29.27900
C  38.02100 1.10700 28.92100
C  40.46600 0.47300 31.73100
C  40.47100 0.00700 28.28100
O  40.29400 -0.12300 27.06500
C  41.78300 -0.42500 28.90200
N  35.17700 1.65000 27.89700
C  36.22800 1.39600 27.12200
C  35.89000 1.47100 25.60100
C  34.35600 1.46600 25.66700
C  34.03700 1.61900 27.12100
C  36.49900 2.69400 24.86000
C  33.56700 0.32100 24.88900
C  33.00100 -0.79800 25.70000
N  33.26100 2.34500 29.84600
C  32.36300 2.28700 28.83400
C  31.06300 2.71100 29.21500
C  31.19600 2.84400 30.63300
C  32.52400 2.60100 30.90000
C  29.78600 2.98300 28.46300
C  30.54600 3.13100 31.87700
O  29.40100 3.42500 32.14500
C  31.52900 2.83000 33.05300
C  31.55800 3.97100 33.97300
O  31.92600 5.08300 33.62600
O  30.95500 3.71000 35.23000
C  30.85200 4.85600 36.14700
H  38.39100 1.89200 33.13900
H  38.28200 0.96200 26.80800
H  32.00200 1.96400 26.73500
H  34.02600 3.17400 34.93000
H  36.78800 2.59500 34.79900
H  36.64600 4.74400 34.92900
H  35.05700 4.93600 34.12200
H  36.63900 4.75700 33.16900
H  35.14200 0.35900 34.89200
H  33.36400 0.79400 34.87200
H  34.98900 0.39000 37.05700
H  33.35800 1.00500 37.01300
H  40.05900 0.17200 32.69700
H  41.18400 1.27200 31.91300
H  41.03100 -0.39400 31.38900
H  42.08900 0.44800 29.47800
H  42.58200 -0.61900 28.18700
H  41.63400 -1.33400 29.48500
H  36.25600 0.59300 25.06900
H  34.05000 2.44500 25.30000
H  35.69900 3.06000 24.21600
H  37.40400 2.52000 24.28000
H  36.80800 3.41800 25.61400
H  34.19600 -0.03500 24.07300
H  32.66800 0.75100 24.44800
H  31.91500 -0.71000 25.66100
H  33.14600 -0.73200 26.77900
H  33.24300 -1.79400 25.32900
H  29.91400 2.90200 27.38300
H  29.37400 3.93500 28.79900
H  28.98400 2.25500 28.58700
H  31.23100 1.94400 33.61300
H  30.55000 4.60700 37.16400
H  30.10200 5.48600 35.66800
H  31.81400 5.36300 36.08200
Mg 40.46600 8.46800 29.02600
C  42.13100 9.82400 31.82300
C  38.27200 6.93100 31.17900
C  38.87200 7.07400 26.41900
C  43.04200 9.56800 26.92900
N  40.22800 8.55200 31.19800
C  40.93100 9.11600 32.17600
C  40.40800 8.90400 33.61200
C  39.36400 7.73500 33.26600
C  39.31400 7.70200 31.75800
C  39.74100 6.39300 33.84500
C  39.69500 10.21300 34.26600
C  39.76000 10.23100 35.79600
H  40.52600 11.44400 36.38400
N  38.67500 7.29000 28.78400
C  37.94400 6.71700 29.85400
C  36.72400 6.18800 29.28700
C  36.85500 6.23500 27.90200
C  38.16400 6.90300 27.61900
C  35.64600 5.49400 30.09800
C  35.92100 5.81300 26.79100
O  36.21800 6.02700 25.65200
C  34.58600 5.19600 27.06600
N  40.97200 8.15700 27.00800
C  40.11100 7.61300 26.10000
C  40.78500 7.77300 24.70900
C  41.70800 8.97300 24.82300
C  41.98000 8.92500 26.34500
C  41.61300 6.52600 24.40200
C  41.12800 10.25100 24.34100
C  39.73300 10.63200 24.77100
N  42.22500 9.51500 29.25500
C  43.18900 9.89200 28.33900
C  44.24200 10.64200 29.04100
C  43.84000 10.65000 30.38800
C  42.65100 9.97700 30.46100
C  45.46200 11.19800 28.44400
C  44.09900 11.19900 31.69200
O  45.01500 11.97300 32.09800
C  42.93800 10.67900 32.66500
C  43.61600 9.87100 33.74100
O  44.43500 9.03300 33.50500
O  43.17500 10.12500 35.06800
C  43.60100 9.11400 36.08300
H  37.59700 6.39300 31.84700
H  38.44200 6.55400 25.56000
H  43.78300 10.08700 26.31700
H  41.23500 8.65200 34.27700
H  38.42900 8.08400 33.70600
H  39.16600 6.28900 34.76500
H  40.81800 6.26800 33.95900
H  39.27800 5.67800 33.16500
H  38.64200 10.24000 33.98400
H  40.12300 11.12800 33.85600
H  40.22100 9.26500 36.00300
H  38.77200 10.15700 36.25000
H  35.82300 5.83000 31.11900
H  35.93800 4.44600 30.03700
H  34.64100 5.77100 29.77900
H  34.06100 6.07300 27.44500
H  34.59100 4.42700 27.83800
H  34.14900 4.81100 26.14400
H  40.09900 7.86800 23.86800
H  42.63400 8.90500 24.25300
H  42.69600 6.55200 24.52300
H  41.40100 6.24300 23.37100
H  41.23400 5.71200 25.02100
H  41.17500 10.33500 23.25500
H  41.80700 11.00800 24.73300
H  39.85400 11.49300 25.42900
H  39.05700 9.95800 25.29800
H  39.19800 10.99600 23.89400
H  46.11400 10.36800 28.17200
H  45.85400 11.85300 29.22200
H  45.24700 11.72600 27.51400
H  42.43100 11.58700 32.99200
H  44.64200 9.27500 36.36300
H  43.48400 8.08500 35.74000
H  43.10400 9.17100 37.05100


