%nproc=24
%mem=175gb
#p cam-b3lyp/Def2SVP td=(nstates=5)

TDDFT excited states in gaussian

0 1
Mg -1.96800 16.99100 27.07800
C  -2.18500 14.77300 29.87900
C  -3.22300 19.43300 29.10400
C  -2.21300 18.84100 24.51400
C  -1.82200 14.16700 25.04100
N  -2.58500 16.98200 29.20400
C  -2.56200 16.08300 30.18300
C  -2.90400 16.68200 31.58000
C  -3.74100 17.95500 31.11000
C  -3.12300 18.15900 29.73800
C  -5.23100 17.67600 30.94100
C  -1.62300 17.10100 32.37700
C  -1.84400 17.38800 33.86500
H  -0.80000 17.02400 34.81100
N  -2.15300 18.95200 26.92600
C  -2.67100 19.79100 27.85500
C  -2.58800 21.14700 27.27100
C  -2.15500 21.00600 25.85300
C  -2.18200 19.57400 25.69800
C  -2.85500 22.39700 28.05200
C  -1.78700 22.00400 24.80100
O  -1.66500 21.68100 23.57000
C  -1.65800 23.40500 25.24100
N  -2.23300 16.57800 25.04900
C  -2.24700 17.56000 24.14100
C  -2.16400 17.01500 22.74600
C  -1.84400 15.45800 22.89800
C  -1.88200 15.35900 24.44300
C  -3.41900 17.19600 21.88100
C  -0.59500 14.92100 22.15500
C  0.65800 15.50100 22.77200
N  -1.81800 14.84700 27.38100
C  -1.79500 13.85500 26.39000
C  -1.79500 12.55300 27.08200
C  -1.83500 12.88000 28.43600
C  -1.88500 14.29600 28.58000
C  -1.81900 11.27600 26.45500
C  -1.87200 12.36200 29.79400
O  -1.76000 11.24400 30.29900
C  -2.22300 13.56300 30.77900
C  -1.25100 13.50900 31.92600
O  -0.03700 13.73600 31.74700
O  -1.93000 13.43500 33.08100
C  -1.02500 13.40800 34.26100
H  -3.82700 20.21100 29.57500
H  -2.18600 19.44400 23.60400
H  -1.69200 13.24400 24.47300
H  -3.52200 16.04200 32.21000
H  -3.55300 18.82200 31.74300
H  -5.45200 16.61400 31.04700
H  -5.47900 18.01800 29.93600
H  -5.82000 18.29200 31.62100
H  -1.29900 18.08700 32.04400
H  -0.83800 16.35200 32.26700
H  -2.81200 17.01700 34.20300
H  -1.90600 18.46800 33.99900
H  -3.31200 22.17700 29.01600
H  -3.61900 22.95400 27.51000
H  -1.96100 23.01100 28.16200
H  -2.60300 23.73500 25.67300
H  -1.30300 23.96100 24.37400
H  -0.92000 23.45700 26.04200
H  -1.36000 17.49200 22.18700
H  -2.66000 14.83500 22.53100
H  -3.23500 17.73100 20.94900
H  -4.17200 17.70500 22.48200
H  -3.93500 16.27100 21.62500
H  -0.61200 15.23200 21.11100
H  -0.51600 13.83400 22.17600
H  0.74600 16.46900 22.28000
H  1.51900 14.87000 22.54900
H  0.52700 15.68800 23.83800
H  -1.10100 10.65800 26.99400
H  -1.56400 11.34900 25.39800
H  -2.85900 10.99200 26.61500
H  -3.25100 13.41000 31.10600
H  -1.27000 12.51300 34.83300
H  -1.13500 14.37200 34.75800
H  0.03200 13.23700 34.05400
Mg 3.15800 -0.09400 44.31200
C  5.98100 1.96700 44.12700
C  1.59800 2.25100 42.30500
C  0.53500 -2.15100 44.13700
C  5.14900 -2.67000 45.58500
N  3.88700 1.89700 43.13200
C  5.03800 2.56500 43.33900
C  5.13100 3.86100 42.57000
C  3.59000 4.00400 42.27100
C  2.94600 2.64400 42.52000
C  2.95500 5.03300 43.24400
C  6.13600 3.75500 41.41600
C  6.21000 2.46100 40.57900
H  6.19500 2.64400 39.06600
N  1.34100 0.02700 43.38000
C  0.86600 1.12500 42.71300
C  -0.59800 1.03700 42.63500
C  -0.95100 -0.31800 43.02000
C  0.33900 -0.85500 43.55100
C  -1.47900 2.10800 41.88500
C  -2.32500 -0.98100 42.89500
O  -3.28500 -0.34000 42.56900
C  -2.49000 -2.43600 43.22700
N  2.98400 -2.23900 44.61900
C  1.73200 -2.88100 44.59300
C  1.80300 -4.39600 45.06100
C  3.31600 -4.49100 45.58100
C  3.86000 -3.01900 45.28400
C  0.72300 -4.97700 46.10400
C  4.23400 -5.64500 44.96900
C  5.28000 -6.17800 46.06800
N  5.16300 -0.35600 44.84000
C  5.79800 -1.43100 45.42800
C  7.17100 -1.05900 45.74700
C  7.33000 0.28900 45.33400
C  6.08400 0.65300 44.70700
C  8.16200 -1.87500 46.53500
C  8.23900 1.46700 45.15000
O  9.42700 1.57800 45.35600
C  7.35200 2.56500 44.42300
C  7.28300 3.74500 45.35300
O  8.21800 4.56900 45.51300
O  6.00100 3.85400 45.87200
C  5.72900 5.05600 46.58700
H  1.07500 3.03200 41.74900
H  -0.29600 -2.83600 44.31900
H  5.70000 -3.41500 46.16300
H  5.37600 4.70000 43.22100
H  3.29100 4.31200 41.27000
H  1.94000 4.68000 43.42800
H  3.04000 6.04200 42.84300
H  3.31500 5.08500 44.27200
H  7.12000 3.81500 41.88000
H  5.98200 4.60800 40.75500
H  5.33900 1.84600 40.80400
H  7.15200 1.96400 40.80900
H  -1.46500 2.03800 40.79700
H  -1.16500 3.10900 42.18100
H  -2.53000 2.14700 42.16900
H  -3.47600 -2.80900 42.94800
H  -2.33200 -2.65600 44.28300
H  -1.79700 -2.90200 42.52600
H  1.68700 -4.88400 44.09400
H  3.35000 -4.60600 46.66400
H  -0.10700 -5.37000 45.51800
H  0.37900 -4.20700 46.79400
H  1.20300 -5.75500 46.69800
H  4.88900 -5.25300 44.19100
H  3.62800 -6.44500 44.54300
H  6.30700 -6.00900 45.74400
H  5.13600 -7.24800 46.21500
H  5.31200 -5.69700 47.04500
H  8.31600 -2.82100 46.01700
H  7.75800 -2.08300 47.52600
H  9.13600 -1.39100 46.60500
H  7.97000 2.88400 43.58400
H  4.67500 5.07800 46.86300
H  6.08300 5.93000 46.04000
H  6.20600 5.06600 47.56700


