%nproc=24
%mem=175gb
#p cam-b3lyp/Def2SVP td=(nstates=5)

TDDFT excited states in gaussian

0 1
Mg 17.05400 -2.28800 27.75000
C  16.54800 -0.35400 30.72600
C  18.85200 -4.52900 29.65700
C  18.01300 -3.67000 24.94900
C  15.39200 0.22200 26.03300
N  17.88600 -2.27700 29.96200
C  17.41200 -1.43700 30.93300
C  17.78200 -2.00100 32.33100
C  18.58500 -3.32700 31.99600
C  18.48400 -3.42400 30.43000
C  20.10200 -3.41100 32.45300
C  16.57800 -2.28600 33.26800
C  16.68400 -1.85000 34.68600
H  18.05300 -1.52300 35.39600
N  18.30500 -3.91800 27.31000
C  18.85900 -4.81900 28.21900
C  19.64100 -5.82500 27.47500
C  19.29300 -5.63200 26.08300
C  18.51600 -4.37100 26.05800
C  20.53100 -6.87100 28.07500
C  19.63900 -6.46300 24.82500
O  19.04500 -6.38400 23.72900
C  20.63000 -7.54600 24.97700
N  16.79100 -1.75400 25.84400
C  17.37300 -2.49900 24.84200
C  16.84500 -2.07000 23.44500
C  15.70300 -1.04100 23.86200
C  15.95300 -0.84300 25.34700
C  17.88000 -1.47900 22.40300
C  14.26500 -1.46100 23.60200
C  13.50200 -0.61900 22.55800
N  15.98100 -0.53800 28.25500
C  15.38600 0.39400 27.43800
C  14.87800 1.51400 28.24100
C  15.27300 1.20700 29.53100
C  15.93800 -0.03900 29.49700
C  14.17200 2.75100 27.79300
C  15.18900 1.69900 30.85900
O  14.57400 2.68200 31.36200
C  15.98100 0.75800 31.66400
C  17.01200 1.50300 32.46800
O  17.97500 2.03100 32.02700
O  16.72000 1.42300 33.76600
C  17.36800 2.29700 34.68400
H  19.44500 -5.28100 30.18200
H  18.21500 -4.04600 23.94300
H  14.94000 1.04300 25.47400
H  18.42200 -1.24900 32.79400
H  18.07000 -4.18900 32.41900
H  20.43900 -2.60400 33.10300
H  20.70600 -3.31100 31.55000
H  20.31100 -4.38200 32.90300
H  16.34900 -3.34900 33.35200
H  15.66000 -1.80400 32.93300
H  16.30900 -2.63700 35.34100
H  16.04900 -0.97200 34.80100
H  21.52400 -6.79800 27.63200
H  20.09600 -7.83300 27.80400
H  20.47400 -6.87000 29.16400
H  21.57900 -7.08500 25.25100
H  20.75500 -7.96300 23.97800
H  20.26200 -8.35300 25.61000
H  16.37000 -2.96000 23.03100
H  15.88800 -0.12500 23.30100
H  18.88000 -1.46500 22.83500
H  17.57100 -0.51800 21.99000
H  17.86400 -2.13300 21.53100
H  13.63500 -1.61600 24.47800
H  14.30700 -2.45900 23.16700
H  12.47900 -0.33500 22.80400
H  13.29800 -1.28100 21.71600
H  13.99200 0.30400 22.25100
H  13.75500 2.65600 26.79000
H  14.88900 3.56000 27.65400
H  13.49700 3.03000 28.60200
H  15.27200 0.27100 32.33300
H  16.91900 3.28000 34.53500
H  18.41700 2.43200 34.42000
H  17.17400 2.00000 35.71500
Mg 16.41100 52.36700 25.56600
C  18.01800 50.88800 28.30000
C  13.92400 53.47100 27.63400
C  14.78500 53.43800 22.89200
C  18.97700 50.98900 23.49400
N  16.01700 52.13900 27.73500
C  16.81400 51.56600 28.70100
C  16.31600 51.93200 30.08700
C  14.87100 52.50500 29.80500
C  15.00600 52.79900 28.27200
C  13.75200 51.51700 30.10900
C  17.38000 52.82700 30.82100
C  16.86600 53.42500 32.16000
H  15.83800 52.61100 32.91800
N  14.67300 53.30500 25.31300
C  13.70900 53.59600 26.27000
C  12.51400 54.21500 25.67000
C  12.80900 54.23100 24.27200
C  14.13200 53.63200 24.11700
C  11.36800 54.71200 26.46900
C  11.91000 54.75300 23.18100
O  12.26900 54.77100 21.97100
C  10.56700 55.35400 23.49600
N  16.86500 52.27500 23.47100
C  15.99700 52.81000 22.61200
C  16.44300 52.50800 21.11400
C  17.81800 51.65600 21.31000
C  17.89300 51.61900 22.83700
C  15.27500 51.72000 20.39100
C  19.11700 52.36100 20.72800
C  19.40800 52.10700 19.22100
N  18.08500 51.15100 25.76500
C  19.11600 50.75400 24.87300
C  20.19800 50.00100 25.64600
C  19.78200 49.96200 26.97300
C  18.52400 50.75100 27.00100
C  21.48500 49.44800 25.11900
C  20.10700 49.55500 28.32000
O  21.06000 48.92400 28.78800
C  19.05800 50.30100 29.28500
C  18.45300 49.37700 30.31700
O  17.48000 48.69900 30.12500
O  19.02600 49.59100 31.59100
C  18.26600 49.12100 32.75900
H  13.19300 53.70900 28.41000
H  14.23600 53.78000 22.01200
H  19.73200 50.45400 22.91400
H  16.24800 51.01000 30.66300
H  14.63800 53.45400 30.28900
H  13.10300 52.02100 30.82500
H  14.20000 50.58000 30.43900
H  13.06200 51.39100 29.27500
H  17.73700 53.44800 30.00000
H  18.21600 52.16100 31.03200
H  16.46200 54.39100 31.85700
H  17.72400 53.56200 32.81800
H  10.55700 54.06200 26.14100
H  11.17100 55.77400 26.32500
H  11.38200 54.60100 27.55400
H  10.71400 56.25300 24.09300
H  10.12800 54.49800 24.01000
H  9.92000 55.56900 22.64600
H  16.62800 53.52500 20.76600
H  17.77900 50.58400 21.11200
H  14.41400 51.50600 21.02400
H  15.64500 50.76000 20.03000
H  14.90700 52.39400 19.61800
H  19.98300 52.23400 21.37700
H  18.92400 53.43100 20.79800
H  19.48300 53.08600 18.74900
H  18.62700 51.45900 18.82300
H  20.36100 51.60000 19.06800
H  22.27100 50.10500 25.49200
H  21.46400 49.41600 24.02900
H  21.78400 48.45300 25.44800
H  19.61000 51.11500 29.75400
H  18.44700 48.04700 32.79300
H  17.22900 49.45300 32.70500
H  18.68800 49.63700 33.62100


