%nproc=24
%mem=175gb
#p cam-b3lyp/Def2SVP td=(nstates=5)

TDDFT excited states in gaussian

0 1
Mg 16.41100 52.36700 25.56600
C  18.01800 50.88800 28.30000
C  13.92400 53.47100 27.63400
C  14.78500 53.43800 22.89200
C  18.97700 50.98900 23.49400
N  16.01700 52.13900 27.73500
C  16.81400 51.56600 28.70100
C  16.31600 51.93200 30.08700
C  14.87100 52.50500 29.80500
C  15.00600 52.79900 28.27200
C  13.75200 51.51700 30.10900
C  17.38000 52.82700 30.82100
C  16.86600 53.42500 32.16000
H  15.83800 52.61100 32.91800
N  14.67300 53.30500 25.31300
C  13.70900 53.59600 26.27000
C  12.51400 54.21500 25.67000
C  12.80900 54.23100 24.27200
C  14.13200 53.63200 24.11700
C  11.36800 54.71200 26.46900
C  11.91000 54.75300 23.18100
O  12.26900 54.77100 21.97100
C  10.56700 55.35400 23.49600
N  16.86500 52.27500 23.47100
C  15.99700 52.81000 22.61200
C  16.44300 52.50800 21.11400
C  17.81800 51.65600 21.31000
C  17.89300 51.61900 22.83700
C  15.27500 51.72000 20.39100
C  19.11700 52.36100 20.72800
C  19.40800 52.10700 19.22100
N  18.08500 51.15100 25.76500
C  19.11600 50.75400 24.87300
C  20.19800 50.00100 25.64600
C  19.78200 49.96200 26.97300
C  18.52400 50.75100 27.00100
C  21.48500 49.44800 25.11900
C  20.10700 49.55500 28.32000
O  21.06000 48.92400 28.78800
C  19.05800 50.30100 29.28500
C  18.45300 49.37700 30.31700
O  17.48000 48.69900 30.12500
O  19.02600 49.59100 31.59100
C  18.26600 49.12100 32.75900
H  13.19300 53.70900 28.41000
H  14.23600 53.78000 22.01200
H  19.73200 50.45400 22.91400
H  16.24800 51.01000 30.66300
H  14.63800 53.45400 30.28900
H  13.10300 52.02100 30.82500
H  14.20000 50.58000 30.43900
H  13.06200 51.39100 29.27500
H  17.73700 53.44800 30.00000
H  18.21600 52.16100 31.03200
H  16.46200 54.39100 31.85700
H  17.72400 53.56200 32.81800
H  10.55700 54.06200 26.14100
H  11.17100 55.77400 26.32500
H  11.38200 54.60100 27.55400
H  10.71400 56.25300 24.09300
H  10.12800 54.49800 24.01000
H  9.92000 55.56900 22.64600
H  16.62800 53.52500 20.76600
H  17.77900 50.58400 21.11200
H  14.41400 51.50600 21.02400
H  15.64500 50.76000 20.03000
H  14.90700 52.39400 19.61800
H  19.98300 52.23400 21.37700
H  18.92400 53.43100 20.79800
H  19.48300 53.08600 18.74900
H  18.62700 51.45900 18.82300
H  20.36100 51.60000 19.06800
H  22.27100 50.10500 25.49200
H  21.46400 49.41600 24.02900
H  21.78400 48.45300 25.44800
H  19.61000 51.11500 29.75400
H  18.44700 48.04700 32.79300
H  17.22900 49.45300 32.70500
H  18.68800 49.63700 33.62100
Mg -9.12600 18.73000 43.07000
C  -5.62300 18.44500 42.86700
C  -8.71100 22.08300 42.24600
C  -12.43100 19.03300 42.79300
C  -9.30300 15.26600 42.95700
N  -7.32000 20.02500 42.45300
C  -5.96700 19.76600 42.55400
C  -5.07000 20.98600 42.54900
C  -6.06600 22.15700 42.37300
C  -7.44800 21.42600 42.33500
C  -5.98600 23.25800 43.50700
C  -3.93600 21.03100 41.43000
C  -4.22600 20.35100 40.08200
H  -4.56600 21.25200 38.85800
N  -10.36200 20.30600 42.60500
C  -10.01500 21.60400 42.35900
C  -11.22400 22.42800 42.22000
C  -12.33600 21.54600 42.38200
C  -11.71100 20.20500 42.59800
C  -11.19700 23.93200 41.97500
C  -13.79400 22.10700 42.18800
O  -13.91800 23.28100 41.86800
C  -15.04600 21.14100 42.31600
N  -10.60200 17.36400 42.77700
C  -11.94900 17.71100 42.85200
C  -12.88700 16.37600 42.87100
C  -11.75200 15.22000 42.76300
C  -10.48500 16.00900 42.84500
C  -13.77000 16.28100 44.15000
C  -11.80700 14.33600 41.44400
C  -11.81900 12.80500 41.57400
N  -7.76200 17.11800 43.06200
C  -7.94400 15.76000 43.00400
C  -6.61700 15.11000 42.96500
C  -5.67900 16.17500 43.03100
C  -6.45600 17.36700 43.03800
C  -6.31500 13.64100 42.85700
C  -4.23100 16.45300 42.98800
O  -3.23100 15.72200 43.03800
C  -4.16400 17.97000 43.08300
C  -3.54200 18.42400 44.28100
O  -4.15400 18.45500 45.38000
O  -2.21800 18.84600 44.04800
C  -1.49600 19.49100 45.14000
H  -8.63900 23.16900 42.16100
H  -13.51700 19.11600 42.86600
H  -9.44500 14.18400 42.98300
H  -4.61500 20.94700 43.53800
H  -5.92300 22.50900 41.35200
H  -5.58200 24.18000 43.08900
H  -5.32600 22.85000 44.27300
H  -6.97200 23.48100 43.91600
H  -3.14100 20.46400 41.91600
H  -3.60700 22.06200 41.29800
H  -5.03700 19.62900 40.18300
H  -3.36900 19.72900 39.82700
H  -11.41500 24.23200 40.95000
H  -10.31200 24.38600 42.42100
H  -11.94400 24.43600 42.58800
H  -14.90900 20.56900 43.23400
H  -15.05000 20.49700 41.43700
H  -16.00600 21.63900 42.18000
H  -13.59700 16.50100 42.05400
H  -11.83300 14.61300 43.66500
H  -13.23300 15.66500 44.87100
H  -14.78200 15.93400 43.94100
H  -13.98700 17.24300 44.61400
H  -10.98000 14.66700 40.81500
H  -12.76100 14.64800 41.01900
H  -11.51100 12.31300 40.65100
H  -12.86600 12.60200 41.79800
H  -11.12600 12.60300 42.39100
H  -7.19000 13.22900 42.35500
H  -6.33400 13.32500 43.90000
H  -5.34100 13.39500 42.43300
H  -3.56700 18.21200 42.20400
H  -1.27600 18.88800 46.02100
H  -2.03900 20.37600 45.47300
H  -0.61300 19.94900 44.69400


