%nproc=24
%mem=175gb
#p cam-b3lyp/Def2SVP td=(nstates=5) density=(transition=1)

TDDFT excited states in gaussian

0 1
Mg 40.54200 8.71200 29.57000
C  42.46900 10.35300 31.83700
C  38.24000 7.70200 31.93300
C  38.87500 6.96300 27.14400
C  43.10200 9.33000 27.08900
N  40.50700 8.83000 31.66000
C  41.28100 9.79100 32.39300
C  40.70700 10.01900 33.73400
C  39.62800 8.84800 33.81600
C  39.41100 8.39300 32.39000
C  40.09700 7.61800 34.74300
C  40.24300 11.48300 34.00600
C  40.64100 12.04200 35.33400
H  40.55300 11.05000 36.56000
N  38.75400 7.55700 29.53000
C  38.00600 7.28200 30.63600
C  36.89200 6.50300 30.21600
C  36.97400 6.32300 28.78000
C  38.23000 7.03300 28.36500
C  35.87900 5.90900 31.21900
C  36.08100 5.65900 27.77900
O  36.28700 5.46300 26.57600
C  34.68000 5.19900 28.33400
N  40.98100 8.10600 27.39000
C  40.09800 7.49500 26.64000
C  40.46000 7.54300 25.15700
C  41.81600 8.30500 25.16100
C  42.00400 8.59400 26.64900
C  40.56900 6.08800 24.47000
C  41.66000 9.63200 24.29500
C  40.74000 10.78700 24.76200
N  42.48900 9.50900 29.49800
C  43.34000 9.72700 28.43100
C  44.44800 10.55700 28.94600
C  44.20300 10.86700 30.25000
C  42.96700 10.18300 30.54000
C  45.69600 10.84800 28.18600
C  44.66700 11.56800 31.44700
O  45.66700 12.23600 31.65000
C  43.53700 11.23400 32.51700
C  44.17900 10.46300 33.60100
O  44.82400 9.40400 33.50900
O  43.90700 11.19500 34.73900
C  44.28800 10.53200 35.99300
H  37.46200 7.40700 32.64000
H  38.23300 6.48700 26.39900
H  43.84700 9.59300 26.33600
H  41.53500 9.82500 34.41700
H  38.70200 9.27400 34.20100
H  40.95100 7.85100 35.37900
H  40.49700 6.86600 34.06300
H  39.17400 7.30300 35.22800
H  39.15600 11.54000 33.94800
H  40.73700 12.04000 33.21000
H  39.99600 12.85500 35.66500
H  41.60800 12.52200 35.48500
H  35.14900 6.60800 31.62700
H  36.53200 5.46300 31.96900
H  35.20300 5.18600 30.76300
H  34.82100 4.32000 28.96300
H  33.98600 5.15200 27.49500
H  34.17100 5.96300 28.92200
H  39.71300 8.14400 24.63900
H  42.64100 7.73100 24.73900
H  39.67900 5.98600 23.84800
H  40.55600 5.31000 25.23400
H  41.39700 5.86900 23.79700
H  41.39900 9.47200 23.24900
H  42.67000 10.03800 24.36000
H  41.45000 11.59500 24.93900
H  40.14900 10.52600 25.63900
H  40.01100 11.10100 24.01500
H  45.97000 11.83700 28.55200
H  45.54800 10.83600 27.10600
H  46.48500 10.23100 28.61400
H  43.32700 12.24400 32.86800
H  44.09900 11.31400 36.72900
H  45.36500 10.37600 35.93100
H  43.84100 9.55300 36.16700
Mg 46.81300 34.80600 27.83700
C  45.17600 32.79100 30.24000
C  46.71900 37.24900 30.02700
C  47.33800 36.80600 25.25700
C  46.11100 32.19400 25.53200
N  46.14800 34.85100 30.00200
C  45.62400 33.97200 30.77600
C  45.62400 34.45800 32.24000
C  45.67300 36.06300 32.08800
C  46.14500 36.09800 30.57500
C  44.31800 36.83800 32.33200
C  46.95000 33.94900 33.01300
C  46.90000 33.61900 34.54000
H  45.84300 34.41700 35.38900
N  47.21100 36.73800 27.68900
C  47.17400 37.59200 28.78100
C  47.54700 38.97300 28.31200
C  47.76600 38.81400 26.88000
C  47.45200 37.44200 26.47200
C  47.57300 40.14900 29.27000
C  48.24400 39.87200 25.91000
O  48.37500 39.70100 24.69000
C  48.62100 41.19700 26.43700
N  46.83600 34.49900 25.62400
C  47.04000 35.53300 24.82800
C  47.32500 35.03100 23.34300
C  46.87400 33.47700 23.48000
C  46.62500 33.36900 24.98200
C  46.58500 35.85900 22.24100
C  47.86700 32.37700 22.98000
C  47.46400 31.59700 21.75500
N  46.03500 32.76500 27.86100
C  45.83400 31.87700 26.82300
C  45.15900 30.73800 27.28800
C  44.84600 31.07700 28.61800
C  45.34900 32.31400 28.94500
C  44.79200 29.55000 26.55100
C  44.25600 30.51400 29.77000
O  43.77000 29.39300 30.08200
C  44.20600 31.72700 30.80400
C  44.55000 31.25500 32.16900
O  45.61400 30.77700 32.55700
O  43.43700 31.56400 33.01300
C  43.54100 31.17800 34.42600
H  46.79200 37.98600 30.83000
H  47.57400 37.46800 24.42200
H  45.97100 31.36600 24.83300
H  44.62300 34.28200 32.63300
H  46.32300 36.45800 32.86800
H  43.46200 36.16400 32.35700
H  44.09900 37.53000 31.51900
H  44.43400 37.33900 33.29300
H  47.78200 34.63400 32.84900
H  47.31500 33.05900 32.50000
H  47.84900 33.77500 35.05400
H  46.48500 32.61400 34.62600
H  48.46100 40.76800 29.13700
H  47.51700 39.85100 30.31700
H  46.63300 40.69500 29.19400
H  47.78800 41.66200 26.96500
H  48.94200 41.84200 25.61900
H  49.47200 41.20900 27.11800
H  48.38800 35.01100 23.10300
H  45.86800 33.30600 23.09400
H  45.91300 36.58500 22.69900
H  46.15500 35.05600 21.64200
H  47.35600 36.29200 21.60500
H  47.98100 31.65400 23.78800
H  48.84800 32.82300 22.81500
H  46.58600 32.13300 21.39700
H  47.14500 30.60700 22.08300
H  48.21600 31.60800 20.96700
H  45.69700 29.19600 26.05800
H  44.17700 29.70800 25.66500
H  44.42700 28.78900 27.24100
H  43.19600 32.13800 30.79400
H  42.60700 31.38000 34.95100
H  44.23500 31.85900 34.91900
H  43.73000 30.10700 34.49100


