%nproc=24
%mem=175gb
#p cam-b3lyp/Def2SVP td=(nstates=5) density=(transition=1)

TDDFT excited states in gaussian

0 1
Mg 17.10100 -2.07700 27.77000
C  16.45500 -0.19100 30.58100
C  19.23600 -3.94700 29.68100
C  17.96100 -3.74600 24.96300
C  15.37700 0.23000 25.82200
N  17.83400 -1.91300 29.91400
C  17.31200 -1.24300 30.86800
C  17.86400 -1.55200 32.35400
C  18.99500 -2.58100 31.95700
C  18.76000 -2.80300 30.38800
C  20.50900 -2.04800 32.15900
C  16.79200 -2.13400 33.37400
C  16.96200 -1.78000 34.89400
H  18.25700 -1.14000 35.29400
N  18.31900 -3.63600 27.38700
C  19.10500 -4.38300 28.35000
C  19.74900 -5.47800 27.63200
C  19.48000 -5.36700 26.24500
C  18.51900 -4.24500 26.14900
C  20.50800 -6.46400 28.44500
C  19.91900 -6.24400 25.04900
O  19.71600 -6.00400 23.89600
C  20.84100 -7.42500 25.41400
N  16.84100 -1.78700 25.63700
C  17.26600 -2.56700 24.69400
C  17.04700 -1.94200 23.28700
C  16.12300 -0.73100 23.56000
C  16.07300 -0.74300 25.10600
C  18.39300 -1.56900 22.63000
C  14.74200 -0.86000 22.84700
C  14.78100 -0.68700 21.32000
N  16.09100 -0.30700 28.09200
C  15.35600 0.45700 27.20300
C  14.73300 1.49900 27.97600
C  15.14100 1.35600 29.33600
C  15.94900 0.18700 29.29900
C  13.91400 2.52600 27.44500
C  15.02300 1.80700 30.68600
O  14.43000 2.83800 31.12300
C  15.98100 0.86900 31.51800
C  16.98700 1.71200 32.12800
O  17.99700 2.11700 31.55300
O  16.51500 2.07400 33.36400
C  17.31500 3.14200 34.00000
H  19.94300 -4.54500 30.25900
H  18.26400 -4.34800 24.10300
H  14.78900 0.88500 25.17500
H  18.31000 -0.60500 32.65900
H  18.90200 -3.48800 32.55400
H  20.47800 -0.95900 32.20400
H  21.12500 -2.36600 31.31800
H  21.03200 -2.40200 33.04800
H  16.90400 -3.21300 33.27100
H  15.74800 -2.07700 33.06400
H  16.83100 -2.63200 35.56100
H  16.22600 -1.02300 35.16500
H  21.52400 -6.11200 28.62600
H  20.42400 -7.48300 28.06700
H  20.00400 -6.52900 29.40900
H  20.33800 -8.26100 25.90100
H  21.56700 -6.93500 26.06200
H  21.42700 -7.84100 24.59500
H  16.51200 -2.73300 22.76200
H  16.63000 0.18800 23.26600
H  19.22100 -1.38900 23.31600
H  18.44300 -0.64500 22.05300
H  18.63700 -2.41000 21.98100
H  14.08400 -0.07400 23.21500
H  14.28900 -1.82100 23.09300
H  15.82700 -0.60000 21.02600
H  14.42000 0.31100 21.07100
H  14.22200 -1.38300 20.69500
H  13.25200 2.01200 26.74800
H  14.42200 3.30300 26.87400
H  13.44500 3.05700 28.27400
H  15.32300 0.48100 32.29600
H  17.17000 4.03200 33.38700
H  18.34600 2.83300 34.16900
H  16.87700 3.33200 34.98000
Mg 45.00000 3.44200 47.03300
C  42.74800 5.98100 46.47100
C  42.51500 1.08600 46.99500
C  47.33500 0.85800 47.41000
C  47.61400 5.55900 46.25100
N  42.89400 3.58700 46.53800
C  42.09600 4.73400 46.51200
C  40.62300 4.38600 46.28300
C  40.66000 2.87900 46.64300
C  42.13500 2.42800 46.65300
C  39.85400 2.54000 47.91600
C  40.17300 4.67400 44.83700
C  38.76200 5.33200 44.65300
H  38.03300 4.97800 43.41600
N  44.91300 1.33100 47.23000
C  43.80200 0.56100 47.28100
C  44.07100 -0.78100 47.70300
C  45.44900 -0.85000 47.96600
C  45.98000 0.51500 47.55400
C  42.99500 -1.83600 47.96800
C  46.25300 -2.09300 48.49400
O  45.64300 -3.18400 48.63300
C  47.77600 -2.03300 48.94400
N  47.15200 3.17200 46.56100
C  47.86200 2.08300 46.94400
C  49.35200 2.30000 46.87800
C  49.47200 3.78200 46.46200
C  48.00700 4.22600 46.45700
C  50.12800 1.90800 48.17900
C  50.29800 3.99400 45.10500
C  51.71400 4.54900 45.29800
N  45.19600 5.38500 46.52800
C  46.33300 6.17700 46.25500
C  45.93600 7.59000 46.19700
C  44.55800 7.53700 46.35400
C  44.18300 6.18500 46.42000
C  46.76000 8.81000 45.98900
C  43.34800 8.37000 46.40400
O  43.19200 9.59500 46.53700
C  42.11400 7.38900 46.52800
C  41.34500 7.62500 47.82100
O  41.80700 7.77900 48.95600
O  40.04700 7.69400 47.41000
C  39.07000 8.09100 48.41000
H  41.73100 0.32600 46.99100
H  48.15700 0.16300 47.59400
H  48.39400 6.28300 46.00700
H  39.99900 4.98400 46.94800
H  40.15100 2.41000 45.80100
H  39.07600 3.22300 48.25700
H  40.58100 2.53900 48.72800
H  39.36600 1.56800 47.84800
H  40.24600 3.80100 44.18900
H  40.97000 5.28600 44.41400
H  38.87100 6.41600 44.68600
H  38.11500 4.99000 45.46200
H  43.14300 -2.15000 49.00100
H  42.99500 -2.57100 47.16300
H  42.06000 -1.27600 47.95400
H  48.36300 -2.15900 48.03500
H  47.92900 -2.88500 49.60600
H  47.87200 -1.14900 49.57500
H  49.74800 1.66300 46.08700
H  49.86100 4.46700 47.21500
H  50.84800 2.67500 48.46300
H  50.67000 0.96800 48.07700
H  49.41000 1.70300 48.97200
H  49.82900 4.72000 44.44100
H  50.30900 3.07000 44.52700
H  52.39600 4.06600 44.59800
H  52.05000 4.35300 46.31600
H  51.79100 5.62600 45.15000
H  47.80500 8.50000 45.98500
H  46.42200 9.60500 46.65400
H  46.58100 9.11700 44.95800
H  41.44200 7.45600 45.67200
H  39.19800 7.59700 49.37400
H  38.01800 7.98300 48.14600
H  39.14800 9.16300 48.59300


