%nproc=24
%mem=175gb
#p cam-b3lyp/Def2SVP td=(nstates=5) density=(transition=1)

TDDFT excited states in gaussian

0 1
Mg 46.36700 34.87300 28.25800
C  44.78600 32.87200 30.57800
C  46.38600 37.42000 30.77600
C  47.55600 36.98300 26.07000
C  45.97900 32.44300 25.82700
N  45.44200 35.14400 30.41100
C  45.07300 34.11700 31.15800
C  45.12500 34.48000 32.66900
C  45.08600 36.04500 32.56800
C  45.67500 36.28100 31.16800
C  43.63100 36.61800 32.70900
C  46.46000 33.91200 33.20000
C  46.69200 34.00900 34.71400
H  45.77100 34.85100 35.57400
N  47.01100 36.84800 28.33900
C  46.96000 37.70200 29.49400
C  47.69800 38.90500 29.13400
C  48.14000 38.73300 27.78500
C  47.54200 37.48800 27.30500
C  47.97900 40.11100 30.10600
C  49.09900 39.67100 26.98000
O  49.27000 39.43700 25.81500
C  49.74700 40.84400 27.64100
N  46.80600 34.69600 26.23000
C  47.30800 35.72100 25.50500
C  47.46400 35.39100 24.02100
C  47.08600 33.89200 23.98700
C  46.58100 33.65400 25.46800
C  46.60500 36.26500 23.03500
C  48.11600 32.92900 23.45400
C  49.59100 32.99000 23.91900
N  45.55600 33.03000 28.12500
C  45.46900 32.14000 27.09300
C  44.91700 30.91500 27.63200
C  44.64100 31.10300 29.03000
C  45.05100 32.44500 29.25900
C  44.67700 29.67800 26.82400
C  44.09100 30.54400 30.21900
O  43.56800 29.43800 30.47700
C  43.93800 31.83400 31.19500
C  44.25300 31.34600 32.61000
O  45.22200 30.77300 32.93400
O  43.18900 31.65700 33.40800
C  43.38400 31.62900 34.84300
H  46.32800 38.21100 31.52600
H  47.90200 37.66100 25.28700
H  45.81100 31.64300 25.10400
H  44.23500 34.14900 33.20400
H  45.76700 36.36500 33.35700
H  43.51000 37.05600 33.69900
H  42.93300 35.79700 32.54400
H  43.41600 37.43400 32.01900
H  47.26100 34.50400 32.75800
H  46.66000 32.91100 32.81900
H  47.74400 34.11200 34.98100
H  46.57400 32.98400 35.06600
H  47.70900 41.07100 29.66500
H  49.03500 40.03600 30.36500
H  47.45400 39.94800 31.04800
H  50.66300 40.94800 27.05900
H  50.08200 40.62400 28.65400
H  49.16800 41.73600 27.88000
H  48.52200 35.54500 23.81000
H  46.16900 33.69700 23.43100
H  46.31700 35.59300 22.22700
H  47.32700 37.01000 22.70000
H  45.80600 36.77400 23.57400
H  48.21500 33.30700 22.43700
H  47.86400 31.86800 23.45400
H  50.35800 33.20100 23.17500
H  49.94100 32.01500 24.25800
H  49.69200 33.75700 24.68700
H  44.20400 28.97200 27.50600
H  45.62900 29.23800 26.52400
H  44.15300 29.83100 25.88100
H  42.91200 32.17200 31.04800
H  42.52900 30.96500 34.97100
H  43.38800 32.61600 35.30600
H  44.28100 31.10000 35.16600
Mg -0.18700 43.41100 24.93300
C  1.60700 43.07600 28.07200
C  -2.89800 42.36800 26.64400
C  -1.73200 43.65500 22.14800
C  2.88800 44.15900 23.34500
N  -0.58100 42.80100 27.23000
C  0.26100 42.84200 28.27700
C  -0.50600 42.58400 29.58800
C  -1.80900 41.92300 28.93700
C  -1.80000 42.43200 27.55700
C  -2.07500 40.44900 29.19300
C  -0.70200 43.92400 30.31800
C  -0.86900 43.75600 31.85700
H  -0.56100 42.38900 32.62600
N  -2.11500 43.10200 24.42900
C  -3.10300 42.58200 25.24300
C  -4.30800 42.41600 24.43600
C  -4.00300 42.86400 23.12700
C  -2.55900 43.22400 23.20800
C  -5.57100 41.87400 24.94000
C  -4.95600 43.00700 21.82800
O  -4.58400 43.57000 20.83500
C  -6.46400 42.70700 21.90000
N  0.55900 43.58500 22.97300
C  -0.33400 43.81600 22.01400
C  0.26300 44.22400 20.69400
C  1.62800 44.75300 21.19800
C  1.73900 43.97100 22.55200
C  0.44200 43.02300 19.65300
C  1.76200 46.32800 21.33100
C  0.94100 47.25900 20.39200
N  1.83500 43.48300 25.49800
C  2.95000 43.84600 24.81700
C  4.05200 43.97800 25.65800
C  3.57000 43.63900 26.89000
C  2.22100 43.36000 26.79400
C  5.44000 44.46500 25.25100
C  4.00800 43.52200 28.28900
O  5.10800 43.51800 28.82100
C  2.67500 43.22200 29.10400
C  2.92200 42.05100 29.92700
O  2.92900 40.87200 29.55900
O  3.40200 42.49600 31.10700
C  4.04200 41.44600 31.87900
H  -3.71800 41.86000 27.15600
H  -2.28400 43.68900 21.20700
H  3.79200 44.48700 22.82800
H  -0.02300 41.81500 30.19100
H  -2.65500 42.40200 29.42800
H  -2.95800 40.29300 29.81200
H  -1.21600 39.99100 29.68300
H  -2.18500 39.85300 28.28700
H  -1.65600 44.33500 29.98700
H  0.05400 44.67300 30.08300
H  -1.83500 44.12700 32.20100
H  -0.27300 44.58700 32.23400
H  -5.66200 41.99700 26.01900
H  -5.55700 40.82000 24.66200
H  -6.45800 42.34700 24.51800
H  -7.01900 43.39100 22.54200
H  -6.51800 41.64400 22.13600
H  -6.89500 42.73900 20.89900
H  -0.45600 44.95300 20.32100
H  2.46400 44.44400 20.57100
H  0.05400 43.47000 18.73800
H  -0.13700 42.13000 19.89100
H  1.46800 42.71200 19.46000
H  2.81700 46.59200 21.27300
H  1.31000 46.48200 22.31100
H  -0.04700 47.44600 20.81200
H  0.97500 46.73900 19.43400
H  1.44300 48.20900 20.21200
H  5.25700 45.13800 24.41300
H  6.07800 43.67100 24.86400
H  5.88500 44.97700 26.10400
H  2.48900 44.10200 29.72100
H  4.45500 41.79500 32.82500
H  4.72400 40.78900 31.33900
H  3.30000 40.72800 32.23000


