%nproc=24
%mem=175gb
#p cam-b3lyp/Def2SVP td=(nstates=5)

TDDFT excited states in gaussian

0 1
Mg 41.12800 41.85700 26.98600
C  40.12700 44.17900 29.64000
C  41.31000 39.41000 29.48700
C  42.36200 39.82100 24.75900
C  40.70600 44.36300 24.68300
N  40.96700 41.85000 29.29200
C  40.42100 42.87500 30.17300
C  40.33700 42.44400 31.65300
C  40.94600 40.93000 31.52100
C  41.11600 40.67200 30.01100
C  42.22400 40.71400 32.30800
C  38.87900 42.58800 32.18500
C  38.60800 41.92700 33.50300
H  37.80600 42.65600 34.55800
N  41.79000 39.86100 27.08100
C  41.78200 39.01000 28.19200
C  42.26600 37.68700 27.80200
C  42.58400 37.77600 26.38500
C  42.25600 39.19200 25.97700
C  42.31400 36.43000 28.74600
C  43.16500 36.78400 25.44300
O  43.35700 36.97800 24.25000
C  43.44600 35.41200 25.89800
N  41.39000 42.02100 25.04500
C  42.03300 41.09600 24.33000
C  42.18900 41.49200 22.84300
C  41.28100 42.70200 22.76900
C  41.15000 43.12300 24.28400
C  43.62900 41.80100 22.45000
C  39.92300 42.66800 22.11700
C  38.93300 41.74000 22.78800
N  40.64100 43.87900 27.09600
C  40.41100 44.75400 26.01900
C  40.01000 46.03800 26.53900
C  39.83600 45.76900 27.92100
C  40.24100 44.45600 28.22800
C  39.64600 47.28300 25.78400
C  39.34100 46.43200 29.16700
O  38.79000 47.54000 29.34100
C  39.55800 45.41800 30.28800
C  40.41800 46.03500 31.39300
O  41.61900 46.43600 31.36700
O  39.69400 45.95900 32.54600
C  40.38200 46.43100 33.76900
H  41.17000 38.61400 30.22000
H  42.83200 39.17800 24.01200
H  40.57600 45.21400 24.01100
H  40.93200 43.17900 32.19500
H  40.17200 40.21500 31.80000
H  42.06000 39.90200 33.01700
H  42.40500 41.63800 32.85600
H  43.16100 40.69100 31.75200
H  38.23700 42.28000 31.35900
H  38.65800 43.64900 32.30200
H  39.47300 41.65400 34.10700
H  37.99100 41.04400 33.33900
H  41.63300 35.71400 28.28500
H  41.97100 36.63500 29.76000
H  43.34800 36.08500 28.73700
H  43.92500 35.36100 26.87600
H  44.12500 35.02700 25.13800
H  42.45600 34.98600 26.05800
H  41.84700 40.64300 22.25100
H  41.73700 43.52300 22.21500
H  43.81400 41.38100 21.46200
H  44.33400 41.35700 23.15200
H  43.75500 42.87300 22.29400
H  40.06700 42.45700 21.05700
H  39.41200 43.62400 22.23000
H  38.39800 41.12300 22.06700
H  38.14200 42.27600 23.31300
H  39.38000 41.04100 23.49500
H  38.67000 47.63800 26.11400
H  39.60000 47.28100 24.69500
H  40.39300 48.03500 26.03900
H  38.59300 45.21900 30.75500
H  40.75500 45.57700 34.33400
H  39.56300 47.00000 34.20900
H  41.15300 47.17200 33.55400
Mg -5.21000 24.54100 27.19500
C  -3.54100 26.38400 29.69300
C  -6.38000 22.49900 29.72600
C  -6.78300 22.59100 24.87600
C  -3.73200 26.39300 24.81700
N  -5.00900 24.47500 29.48500
C  -4.39300 25.40300 30.31600
C  -4.77800 25.15700 31.76100
C  -5.38000 23.70500 31.74000
C  -5.61200 23.56800 30.25200
C  -4.48700 22.58300 32.40100
C  -5.82800 26.14800 32.28500
C  -5.66000 26.57200 33.74800
H  -5.92800 25.52000 34.86000
N  -6.48000 22.85300 27.28100
C  -6.76500 22.19100 28.42600
C  -7.52200 21.02600 28.10100
C  -7.81700 21.04500 26.69400
C  -6.98500 22.14200 26.23200
C  -7.94700 20.03100 29.14500
C  -8.63000 20.10000 25.80900
O  -8.90700 20.38500 24.62300
C  -9.08700 18.72400 26.28000
N  -5.32000 24.55800 25.17000
C  -5.97300 23.61500 24.38200
C  -5.69900 23.91000 22.94300
C  -4.77200 25.17400 22.83700
C  -4.60800 25.45200 24.34000
C  -5.24900 22.67900 22.10000
C  -5.37300 26.38000 22.08300
C  -4.94400 26.45700 20.60500
N  -3.89500 26.01800 27.18100
C  -3.38100 26.77900 26.13200
C  -2.50100 27.90900 26.61000
C  -2.55000 27.71500 28.00000
C  -3.42600 26.62300 28.30100
C  -1.78700 28.93500 25.74900
C  -2.03300 28.27400 29.24000
O  -1.24900 29.20200 29.44300
C  -2.78100 27.47500 30.39000
C  -1.66500 26.98400 31.33300
O  -0.58100 26.54900 31.00300
O  -2.03300 27.27600 32.64500
C  -1.03300 26.85400 33.62600
H  -6.79600 21.92300 30.55500
H  -7.24600 22.04300 24.05300
H  -3.20100 26.86300 23.98700
H  -3.94200 25.15700 32.46000
H  -6.32400 23.59600 32.27400
H  -3.58700 22.93500 32.90600
H  -4.09000 21.81900 31.73300
H  -5.03500 22.07100 33.19200
H  -6.83700 25.75100 32.17600
H  -5.77900 27.08800 31.73500
H  -6.23400 27.46900 33.98000
H  -4.65000 26.93300 33.94100
H  -7.01100 19.85400 29.67500
H  -8.29300 19.05500 28.80500
H  -8.67800 20.40400 29.86200
H  -8.25700 18.16700 26.71500
H  -9.45700 18.28200 25.35500
H  -9.85300 18.80700 27.05100
H  -6.66900 24.06000 22.46800
H  -3.77200 24.98400 22.44500
H  -5.16100 21.82900 22.77700
H  -4.26700 22.88500 21.67500
H  -6.05700 22.54500 21.38000
H  -5.16500 27.26900 22.67800
H  -6.45400 26.27700 21.98600
H  -4.65800 25.46600 20.25200
H  -4.05700 27.05100 20.38400
H  -5.81000 26.77000 20.02100
H  -2.54700 29.61400 25.36200
H  -1.26100 28.53800 24.88100
H  -1.10500 29.45700 26.42000
H  -3.50500 28.04800 30.96900
H  -1.16000 25.83800 34.00100
H  -1.12400 27.59400 34.42100
H  0.01800 26.83100 33.33800


