%nproc=24
%mem=175gb
#p cam-b3lyp/Def2SVP td=(nstates=5) density=(transition=1)

TDDFT excited states in gaussian

0 1
Mg 8.82800 2.97900 28.39100
C  10.36500 1.60400 31.10700
C  7.59700 5.54500 30.49200
C  7.11400 4.23300 25.80200
C  10.13400 0.47400 26.43700
N  8.69300 3.35100 30.57800
C  9.52500 2.68500 31.48700
C  9.40600 3.27200 32.92200
C  8.46000 4.46400 32.61800
C  8.16100 4.43600 31.13000
C  7.12300 4.69600 33.44300
C  10.76000 3.72700 33.62500
C  10.50900 4.32800 35.03400
H  10.96800 3.41400 36.17100
N  7.54400 4.72800 28.17300
C  7.38800 5.73600 29.10000
C  6.47100 6.69300 28.49200
C  6.33200 6.29300 27.12400
C  7.02200 5.05300 26.95500
C  5.95900 7.85000 29.26000
C  5.41800 7.05100 26.09900
O  5.12000 6.60100 24.97400
C  4.78500 8.36300 26.48300
N  8.63500 2.44800 26.51900
C  7.83100 3.12600 25.56000
C  7.67200 2.29800 24.30500
C  8.94400 1.45600 24.38400
C  9.32300 1.47600 25.85800
C  6.36700 1.43300 24.30400
C  10.11600 2.06600 23.58300
C  10.22200 1.75100 22.11500
N  9.99100 1.29200 28.61900
C  10.57300 0.45400 27.74600
C  11.35400 -0.51100 28.46200
C  11.33200 -0.10700 29.78000
C  10.51600 1.03400 29.82700
C  12.08500 -1.61500 27.78100
C  11.82500 -0.42000 31.05300
O  12.58200 -1.29100 31.43600
C  11.20500 0.70900 32.00300
C  10.44000 0.02800 33.08200
O  9.42100 -0.60800 32.96400
O  10.93800 0.32100 34.28700
C  10.21200 -0.27100 35.47600
H  7.38800 6.37900 31.16500
H  6.56600 4.63400 24.94700
H  10.68600 -0.27500 25.86600
H  8.89500 2.54300 33.55100
H  9.00500 5.40000 32.74400
H  6.85500 5.73300 33.64700
H  7.10100 4.02900 34.30500
H  6.33500 4.37900 32.76000
H  11.20100 4.41000 32.90000
H  11.41200 2.85700 33.70200
H  9.47300 4.65600 35.11900
H  11.13500 5.21700 35.10500
H  4.89200 7.69700 29.42300
H  6.27900 8.73500 28.71000
H  6.46700 7.93200 30.22100
H  4.23800 8.77300 25.63400
H  5.63600 9.03200 26.61800
H  4.16200 8.37000 27.37700
H  7.64200 2.93000 23.41700
H  8.80000 0.42300 24.06800
H  6.45900 0.58300 24.97900
H  6.13800 1.09500 23.29300
H  5.57600 2.10700 24.63100
H  11.08800 1.85700 24.02800
H  10.10000 3.15100 23.68700
H  10.17300 2.70400 21.58900
H  9.27100 1.26300 21.90100
H  11.07000 1.12100 21.84600
H  13.12700 -1.33900 27.62400
H  11.63900 -2.06200 26.89200
H  12.10800 -2.42700 28.50800
H  12.02700 1.28100 32.43400
H  9.15600 -0.02800 35.35600
H  10.52300 0.16000 36.42800
H  10.37400 -1.34900 35.46000
Mg 16.41100 52.36700 25.56600
C  18.01800 50.88800 28.30000
C  13.92400 53.47100 27.63400
C  14.78500 53.43800 22.89200
C  18.97700 50.98900 23.49400
N  16.01700 52.13900 27.73500
C  16.81400 51.56600 28.70100
C  16.31600 51.93200 30.08700
C  14.87100 52.50500 29.80500
C  15.00600 52.79900 28.27200
C  13.75200 51.51700 30.10900
C  17.38000 52.82700 30.82100
C  16.86600 53.42500 32.16000
H  15.83800 52.61100 32.91800
N  14.67300 53.30500 25.31300
C  13.70900 53.59600 26.27000
C  12.51400 54.21500 25.67000
C  12.80900 54.23100 24.27200
C  14.13200 53.63200 24.11700
C  11.36800 54.71200 26.46900
C  11.91000 54.75300 23.18100
O  12.26900 54.77100 21.97100
C  10.56700 55.35400 23.49600
N  16.86500 52.27500 23.47100
C  15.99700 52.81000 22.61200
C  16.44300 52.50800 21.11400
C  17.81800 51.65600 21.31000
C  17.89300 51.61900 22.83700
C  15.27500 51.72000 20.39100
C  19.11700 52.36100 20.72800
C  19.40800 52.10700 19.22100
N  18.08500 51.15100 25.76500
C  19.11600 50.75400 24.87300
C  20.19800 50.00100 25.64600
C  19.78200 49.96200 26.97300
C  18.52400 50.75100 27.00100
C  21.48500 49.44800 25.11900
C  20.10700 49.55500 28.32000
O  21.06000 48.92400 28.78800
C  19.05800 50.30100 29.28500
C  18.45300 49.37700 30.31700
O  17.48000 48.69900 30.12500
O  19.02600 49.59100 31.59100
C  18.26600 49.12100 32.75900
H  13.19300 53.70900 28.41000
H  14.23600 53.78000 22.01200
H  19.73200 50.45400 22.91400
H  16.24800 51.01000 30.66300
H  14.63800 53.45400 30.28900
H  13.10300 52.02100 30.82500
H  14.20000 50.58000 30.43900
H  13.06200 51.39100 29.27500
H  17.73700 53.44800 30.00000
H  18.21600 52.16100 31.03200
H  16.46200 54.39100 31.85700
H  17.72400 53.56200 32.81800
H  10.55700 54.06200 26.14100
H  11.17100 55.77400 26.32500
H  11.38200 54.60100 27.55400
H  10.71400 56.25300 24.09300
H  10.12800 54.49800 24.01000
H  9.92000 55.56900 22.64600
H  16.62800 53.52500 20.76600
H  17.77900 50.58400 21.11200
H  14.41400 51.50600 21.02400
H  15.64500 50.76000 20.03000
H  14.90700 52.39400 19.61800
H  19.98300 52.23400 21.37700
H  18.92400 53.43100 20.79800
H  19.48300 53.08600 18.74900
H  18.62700 51.45900 18.82300
H  20.36100 51.60000 19.06800
H  22.27100 50.10500 25.49200
H  21.46400 49.41600 24.02900
H  21.78400 48.45300 25.44800
H  19.61000 51.11500 29.75400
H  18.44700 48.04700 32.79300
H  17.22900 49.45300 32.70500
H  18.68800 49.63700 33.62100


