%nproc=24
%mem=175gb
#p cam-b3lyp/Def2SVP td=(nstates=5)

TDDFT excited states in gaussian

0 1
Mg 2.79300 -0.99900 44.50000
C  6.05500 -0.17400 43.38400
C  1.60600 1.42400 42.43900
C  -0.30000 -2.33900 44.94400
C  4.15400 -3.74300 46.12200
N  3.83100 0.31200 42.98000
C  5.15200 0.58300 42.74000
C  5.32600 1.71500 41.79700
C  3.88200 2.40600 41.78900
C  3.05100 1.33800 42.41400
C  3.87900 3.72200 42.55000
C  5.83700 1.13000 40.47100
C  7.17200 1.73800 39.86600
H  7.22000 2.30200 38.41400
N  0.88600 -0.54700 43.86000
C  0.60800 0.57500 43.06700
C  -0.81500 0.72700 43.01300
C  -1.42800 -0.37100 43.70600
C  -0.26400 -1.10400 44.27200
C  -1.44600 1.92200 42.31000
C  -2.89700 -0.69100 43.87000
O  -3.66200 0.20700 43.41300
C  -3.55500 -1.99100 44.41300
N  1.99700 -2.80800 45.42300
C  0.68200 -3.10900 45.50100
C  0.40600 -4.46500 46.20300
C  1.84700 -4.85700 46.68000
C  2.74500 -3.73600 45.97300
C  -0.59100 -4.26300 47.33000
C  2.30300 -6.22900 46.28700
C  2.45600 -7.17500 47.44700
N  4.64000 -1.73900 44.89100
C  5.11000 -2.84400 45.61200
C  6.47200 -2.80600 45.78400
C  6.89300 -1.74700 44.95400
C  5.75400 -1.18800 44.37900
C  7.21700 -3.66700 46.78200
C  8.08600 -0.96000 44.54300
O  9.22400 -1.08600 44.87400
C  7.50800 0.01200 43.44600
C  8.17400 1.35500 43.65200
O  9.07700 1.80400 42.94600
O  7.57500 2.04000 44.73700
C  8.09900 3.39600 44.89800
H  1.22700 2.33000 41.96100
H  -1.28000 -2.75100 45.19600
H  4.63400 -4.67900 46.41300
H  6.07700 2.40100 42.18900
H  3.61200 2.61400 40.75400
H  4.50800 3.70600 43.43900
H  2.87200 3.89300 42.93200
H  4.11600 4.58800 41.93200
H  5.03800 1.25300 39.74000
H  5.94100 0.04500 40.47900
H  7.81400 0.85800 39.91300
H  7.65200 2.40300 40.58300
H  -1.04200 2.04400 41.30500
H  -1.16400 2.79800 42.89400
H  -2.51800 1.88200 42.11200
H  -3.31300 -1.96500 45.47500
H  -3.08800 -2.84600 43.92400
H  -4.62700 -2.03100 44.21800
H  -0.01900 -5.22600 45.54900
H  1.95500 -4.64800 47.74400
H  -1.44700 -3.72600 46.92100
H  -0.11100 -3.66200 48.10300
H  -0.92100 -5.12200 47.91300
H  3.28200 -6.24400 45.80800
H  1.69000 -6.76000 45.55900
H  1.86400 -8.06400 47.23300
H  2.03500 -6.78100 48.37200
H  3.49000 -7.42400 47.68800
H  8.18600 -3.18800 46.92600
H  7.36400 -4.68500 46.42200
H  6.59100 -3.65900 47.67400
H  7.98500 -0.36600 42.54100
H  7.35600 4.03900 45.37000
H  8.23900 3.88500 43.93500
H  9.04800 3.42700 45.43400
Mg 15.62100 51.82400 26.04800
C  17.47400 50.60700 28.62800
C  13.11000 52.75700 28.20700
C  13.81500 52.82700 23.36600
C  17.99400 50.42600 23.83300
N  15.23600 51.49000 28.16800
C  16.26900 51.27600 29.02600
C  15.94600 51.61800 30.44100
C  14.40600 52.07300 30.26100
C  14.21100 52.11900 28.78100
C  13.38100 51.07100 30.96200
C  16.88200 52.82900 30.90600
C  17.11300 53.00000 32.40900
H  16.27700 52.29800 33.50800
N  13.77400 52.76600 25.77300
C  12.87200 53.04400 26.81300
C  11.70500 53.64500 26.21000
C  11.90800 53.69900 24.81600
C  13.23300 53.12400 24.62900
C  10.53200 54.15900 27.07700
C  10.86200 54.19000 23.68400
O  11.18100 54.33400 22.49700
C  9.41300 54.55600 23.96000
N  15.93700 51.69300 23.86100
C  14.99700 52.16200 23.00600
C  15.27300 51.71300 21.57200
C  16.82600 51.21000 21.68000
C  17.02200 51.18500 23.20400
C  14.21700 50.69700 20.93700
C  17.94900 52.21900 21.11400
C  19.01900 51.70400 20.16900
N  17.42400 50.77200 26.12100
C  18.25400 50.26800 25.19100
C  19.45700 49.67400 25.85400
C  19.17000 49.86100 27.22700
C  17.86900 50.41600 27.30000
C  20.69200 49.07400 25.28100
C  19.74000 49.61300 28.49800
O  20.83000 49.08800 28.80500
C  18.66300 50.08200 29.47300
C  18.25000 48.96100 30.28600
O  17.83600 47.88700 29.97900
O  18.30900 49.39800 31.60600
C  17.88900 48.52200 32.76600
H  12.38500 53.27700 28.83600
H  13.18500 53.06500 22.50600
H  18.65800 49.80900 23.22500
H  16.01600 50.87800 31.23800
H  14.23400 53.06400 30.68100
H  12.50100 51.52900 31.41300
H  13.92900 50.42000 31.64300
H  12.99700 50.42600 30.17100
H  16.51300 53.78500 30.53400
H  17.84200 52.64500 30.42300
H  17.07200 54.07500 32.58900
H  18.14900 52.74600 32.63000
H  10.69700 54.07400 28.15100
H  9.65000 53.59900 26.76800
H  10.36400 55.20000 26.80000
H  9.47200 55.48000 24.53400
H  8.95500 53.91200 24.71100
H  8.82100 54.48200 23.04800
H  15.27500 52.60400 20.94300
H  16.96000 50.24900 21.18300
H  14.69800 49.77000 20.62400
H  13.70900 51.16400 20.09400
H  13.48400 50.38900 21.68300
H  18.44000 52.77000 21.91600
H  17.40700 53.00700 20.59200
H  19.97700 51.93800 20.63200
H  18.94100 52.12500 19.16700
H  18.97400 50.61500 20.12300
H  20.76700 49.12700 24.19500
H  20.76600 48.01700 25.53800
H  21.55200 49.59200 25.70500
H  19.01800 50.87900 30.12700
H  17.50200 47.57000 32.40200
H  17.07000 48.99900 33.30600
H  18.78800 48.39000 33.36800


