%nproc=24
%mem=175gb
#p cam-b3lyp/Def2SVP td=(nstates=5) density=(transition=1)

TDDFT excited states in gaussian

0 1
Mg 46.93600 15.62500 28.05800
C  44.93200 15.29600 30.93700
C  49.09000 17.55900 29.83300
C  48.76000 16.00400 25.23500
C  44.45800 14.02100 26.22900
N  46.95800 16.41700 30.08200
C  46.09700 16.05900 31.12300
C  46.62800 16.60100 32.41600
C  47.62900 17.68000 31.93900
C  47.92100 17.18200 30.50000
C  47.12800 19.15800 31.89100
C  47.27700 15.54600 33.38900
C  46.82300 15.65300 34.81000
H  47.91800 15.57200 35.89000
N  48.69300 16.53500 27.65600
C  49.51600 17.23100 28.55700
C  50.69200 17.65500 27.90800
C  50.64200 17.20000 26.50700
C  49.36600 16.54900 26.42000
C  51.74600 18.54700 28.49600
C  51.62200 17.40800 25.27200
O  51.37900 16.91300 24.19700
C  52.94200 18.14800 25.43500
N  46.59000 15.18000 25.99700
C  47.50700 15.46300 25.03600
C  46.95600 15.01700 23.59800
C  45.70400 14.10600 23.96500
C  45.55200 14.44900 25.50800
C  46.57100 16.16300 22.62200
C  45.92300 12.57300 23.70500
C  44.84800 12.01100 22.87300
N  45.05500 14.86000 28.45700
C  44.20200 14.13300 27.62800
C  43.05900 13.68500 28.37600
C  43.29100 14.14000 29.65800
C  44.47900 14.80000 29.68300
C  41.94600 12.80400 27.75100
C  42.74500 14.20900 31.00100
O  41.65000 13.85600 31.38000
C  43.81000 15.00600 31.90600
C  43.16000 16.20600 32.46400
O  42.63000 17.11600 31.77400
O  43.20400 16.12500 33.82500
C  42.27100 17.04800 34.52400
H  49.71300 18.20600 30.45400
H  49.27600 16.09400 24.27700
H  43.65900 13.58300 25.62800
H  45.89800 17.17200 32.99100
H  48.53800 17.72600 32.53900
H  46.41200 19.40800 32.67500
H  46.69600 19.31300 30.90200
H  47.90500 19.92200 31.89600
H  48.35200 15.68900 33.28100
H  47.12000 14.52600 33.03700
H  46.11600 14.82500 34.86400
H  46.37400 16.63200 34.97700
H  52.68800 18.06100 28.75100
H  51.39900 18.92200 29.45800
H  52.04800 19.43100 27.93500
H  53.46800 18.01800 24.49000
H  53.47200 17.83200 26.33400
H  52.75100 19.17700 25.74100
H  47.74100 14.50200 23.04400
H  44.84000 14.47300 23.40900
H  46.63200 17.17800 23.01600
H  45.55400 16.07500 22.23900
H  47.24700 16.08600 21.77000
H  45.87800 12.05000 24.66100
H  46.85000 12.32800 23.18700
H  45.20700 11.93900 21.84600
H  43.86300 12.47600 22.89300
H  44.58300 11.02200 23.24700
H  42.31900 12.37000 26.82300
H  41.00000 13.34300 27.68200
H  41.83700 11.97900 28.45400
H  44.19600 14.38400 32.71400
H  42.26000 16.83600 35.59300
H  41.27900 16.75800 34.17700
H  42.55700 18.06000 34.23600
Mg -5.09800 24.63300 26.68400
C  -3.70200 26.36700 29.52200
C  -6.11300 22.14300 28.93500
C  -6.48000 23.09600 24.13300
C  -3.72900 27.06700 24.58100
N  -4.87100 24.33000 29.01500
C  -4.47600 25.23800 29.94600
C  -4.87000 24.81900 31.35300
C  -5.34300 23.26900 31.18300
C  -5.42800 23.22100 29.63000
C  -4.42000 22.22500 31.86000
C  -5.97200 25.74300 31.97300
C  -5.56400 26.39400 33.32000
H  -6.48200 25.91600 34.58700
N  -6.12400 22.92100 26.55900
C  -6.45400 21.95500 27.56900
C  -7.23800 20.80800 27.05300
C  -7.37200 21.15200 25.66800
C  -6.65700 22.41400 25.41400
C  -7.70400 19.61500 27.89000
C  -8.01000 20.37100 24.58300
O  -8.30600 20.80000 23.47300
C  -8.47200 18.93600 24.90400
N  -5.23600 25.12700 24.71500
C  -5.84300 24.30800 23.82600
C  -5.57400 24.69000 22.39700
C  -4.73400 25.98700 22.49800
C  -4.58300 26.13300 24.02900
C  -4.97900 23.58700 21.54700
C  -5.55400 27.25800 21.86300
C  -4.76800 28.10300 20.72000
N  -3.71900 26.23300 26.92800
C  -3.33300 27.18000 25.94900
C  -2.55400 28.22500 26.62300
C  -2.81300 27.99000 27.99900
C  -3.40400 26.73200 28.12600
C  -1.71900 29.35800 26.03400
C  -2.39200 28.46300 29.34800
O  -1.66000 29.39300 29.78700
C  -3.08100 27.46800 30.36000
C  -2.03500 26.94900 31.30200
O  -0.94600 26.57900 30.96500
O  -2.47500 27.07900 32.59000
C  -1.38400 26.91100 33.58300
H  -6.28600 21.33800 29.65200
H  -6.91400 22.63300 23.24400
H  -3.32400 27.85900 23.94800
H  -3.94900 24.82500 31.93600
H  -6.36100 23.10200 31.53600
H  -3.94100 21.58900 31.11500
H  -4.98800 21.61200 32.56100
H  -3.64700 22.62700 32.51500
H  -6.89500 25.19600 32.16700
H  -6.22100 26.57200 31.31000
H  -5.77000 27.46400 33.35800
H  -4.50500 26.32600 33.56700
H  -7.71300 19.74200 28.97300
H  -7.20000 18.67100 27.68300
H  -8.74200 19.45800 27.59500
H  -7.62000 18.31700 25.18500
H  -9.03200 18.48700 24.08300
H  -9.15600 18.98900 25.75100
H  -6.53500 24.86100 21.91000
H  -3.75100 25.85800 22.04600
H  -5.68000 23.16900 20.82400
H  -4.66700 22.69800 22.09500
H  -4.09700 23.98900 21.04800
H  -5.86900 27.99500 22.60100
H  -6.48500 26.95600 21.38400
H  -4.00100 27.42900 20.33800
H  -4.32800 29.01700 21.12100
H  -5.40200 28.28200 19.85200
H  -1.71900 30.24300 26.67000
H  -2.23000 29.70200 25.13400
H  -0.77900 28.87000 25.77600
H  -3.74400 28.08300 30.96800
H  -0.90300 25.95500 33.37700
H  -1.91800 26.79500 34.52600
H  -0.58100 27.64700 33.62200


