%nproc=24
%mem=175gb
#p cam-b3lyp/Def2SVP td=(nstates=5)

TDDFT excited states in gaussian

0 1
Mg 44.01800 2.91800 47.66100
C  42.06000 5.71500 47.01900
C  41.00600 1.01600 47.31200
C  45.79900 0.15700 47.76200
C  46.87900 4.91700 47.24100
N  41.83200 3.33000 47.09800
C  41.29400 4.59200 46.98100
C  39.79500 4.50000 46.68300
C  39.48700 3.02600 47.06600
C  40.84700 2.38200 47.12900
C  38.69200 2.74400 48.40100
C  39.44800 4.83900 45.22400
C  38.00300 4.93400 44.91400
H  37.59500 5.76800 43.64000
N  43.49300 0.83400 47.54100
C  42.21400 0.26700 47.42800
C  42.35900 -1.16200 47.43400
C  43.77600 -1.43800 47.42700
C  44.43200 -0.09700 47.60800
C  41.15600 -2.13400 47.28600
C  44.34200 -2.85900 47.34100
O  43.62700 -3.84400 47.42200
C  45.80100 -3.04100 47.16300
N  46.06200 2.62900 47.74100
C  46.53800 1.38200 47.82400
C  48.11500 1.40300 47.69600
C  48.51000 2.91300 47.47000
C  47.02000 3.56100 47.42600
C  48.93400 0.68700 48.80200
C  49.24600 3.07700 46.12300
C  50.25900 4.22700 46.06800
N  44.47400 4.92000 47.22100
C  45.65200 5.61300 47.20700
C  45.34700 7.04400 47.09000
C  43.98000 7.11700 47.10900
C  43.47900 5.83500 47.12000
C  46.36600 8.18800 47.10600
C  42.87400 8.02300 47.02800
O  42.81600 9.22700 46.97900
C  41.57700 7.14800 46.98100
C  40.79100 7.44500 48.21000
O  41.19100 7.46200 49.34100
O  39.43700 7.57100 47.85400
C  38.52600 7.78100 48.94300
H  40.02600 0.53600 47.28500
H  46.51600 -0.66500 47.82200
H  47.74600 5.57800 47.17700
H  39.30800 5.14400 47.41400
H  38.96600 2.43700 46.31200
H  37.88000 2.08800 48.08800
H  38.53600 3.57700 49.08700
H  39.33000 2.09900 49.00500
H  39.75400 4.10000 44.48300
H  39.93900 5.76800 44.93400
H  37.52300 5.35800 45.79600
H  37.59600 3.92700 44.82400
H  41.34100 -2.41600 46.24900
H  40.16900 -1.67200 47.25600
H  41.01800 -3.02000 47.90600
H  46.05900 -2.38200 46.33400
H  45.98200 -4.06600 46.83900
H  46.21200 -2.73700 48.12600
H  48.33800 0.83400 46.79300
H  49.07900 3.37000 48.27900
H  49.32800 -0.23900 48.38200
H  48.30000 0.56800 49.68000
H  49.82500 1.27000 49.03500
H  48.45300 3.22300 45.39000
H  49.73200 2.16800 45.76800
H  51.18600 3.72000 45.79800
H  50.32400 4.81900 46.98100
H  50.02100 4.90100 45.24500
H  46.22000 8.97700 46.36900
H  47.30400 7.65100 46.96300
H  46.44100 8.50600 48.14600
H  41.03900 7.44900 46.08200
H  38.18200 8.81200 48.86000
H  38.86300 7.60600 49.96500
H  37.69400 7.09100 48.80500
Mg 53.03600 23.47300 43.74200
C  50.27300 25.68400 43.34900
C  50.89700 20.80500 43.54400
C  55.76900 21.39500 43.06400
C  55.19900 26.21400 43.34600
N  50.76700 23.35900 43.20300
C  49.85000 24.33200 43.33000
C  48.49000 23.71000 43.58900
C  48.66000 22.11500 43.58600
C  50.27200 22.11900 43.58300
C  48.04000 21.54600 44.88200
C  47.47500 24.17900 42.55900
C  47.98000 24.34500 41.10600
H  47.51400 23.28000 40.07600
N  53.32100 21.33300 43.43700
C  52.26200 20.45300 43.38400
C  52.84400 19.14800 43.34900
C  54.26800 19.24400 43.11100
C  54.55100 20.69600 43.23900
C  52.01300 17.88700 43.29400
C  55.22500 18.13300 42.67600
O  54.80000 17.01500 42.45700
C  56.63100 18.33100 42.48800
N  55.16000 23.75300 43.17000
C  56.04500 22.76900 43.10900
C  57.45600 23.24500 42.80400
C  57.16400 24.78400 42.53600
C  55.80000 24.97000 43.09600
C  58.49900 22.99600 44.00000
C  57.34100 25.12500 40.98500
C  58.47200 25.99800 40.52000
N  52.84200 25.47200 43.66600
C  53.82600 26.48100 43.63200
C  53.20700 27.81500 43.74300
C  51.85100 27.50000 43.65700
C  51.62900 26.08900 43.48500
C  53.87500 29.20800 44.01000
C  50.52800 28.13200 43.63200
O  50.14800 29.31100 43.72400
C  49.45600 27.00700 43.45200
C  48.88400 27.41400 42.13800
O  49.50700 27.53100 41.11400
O  47.60700 27.75600 42.28300
C  46.79800 28.12100 41.06800
H  50.22500 19.97800 43.78200
H  56.71400 20.86800 42.91800
H  55.94300 26.97900 43.11200
H  48.29500 24.16100 44.56200
H  48.23100 21.65000 42.69800
H  47.24600 20.85400 44.60200
H  47.57500 22.29200 45.52700
H  48.83900 20.99200 45.37400
H  47.06700 25.14300 42.86300
H  46.65900 23.46100 42.47200
H  49.05000 24.24200 40.92600
H  47.63400 25.33600 40.81200
H  50.94600 18.10600 43.24600
H  52.31600 17.25700 44.13100
H  52.35200 17.31500 42.43100
H  56.90400 19.01600 41.68500
H  57.10100 17.37500 42.25800
H  56.94000 18.76400 43.44000
H  57.86000 22.86500 41.86600
H  58.02800 25.24600 43.01400
H  58.00400 22.45500 44.80700
H  58.78500 23.97500 44.38500
H  59.43300 22.50300 43.72600
H  56.50400 25.71600 40.61300
H  57.40500 24.21500 40.39000
H  58.17800 27.02600 40.30800
H  58.72900 25.47900 39.59600
H  59.39500 25.89600 41.09100
H  54.34600 29.53100 43.08200
H  54.56000 29.07800 44.84800
H  53.08700 29.93100 44.22000
H  48.79600 27.08200 44.31700
H  46.90900 29.16800 40.78500
H  45.73600 27.93300 41.23100
H  47.15900 27.45300 40.28600


