%nproc=24
%mem=175gb
#p cam-b3lyp/Def2SVP td=(nstates=5) density=(transition=1)

TDDFT excited states in gaussian

0 1
Mg 3.15800 -0.09400 44.31200
C  5.98100 1.96700 44.12700
C  1.59800 2.25100 42.30500
C  0.53500 -2.15100 44.13700
C  5.14900 -2.67000 45.58500
N  3.88700 1.89700 43.13200
C  5.03800 2.56500 43.33900
C  5.13100 3.86100 42.57000
C  3.59000 4.00400 42.27100
C  2.94600 2.64400 42.52000
C  2.95500 5.03300 43.24400
C  6.13600 3.75500 41.41600
C  6.21000 2.46100 40.57900
H  6.19500 2.64400 39.06600
N  1.34100 0.02700 43.38000
C  0.86600 1.12500 42.71300
C  -0.59800 1.03700 42.63500
C  -0.95100 -0.31800 43.02000
C  0.33900 -0.85500 43.55100
C  -1.47900 2.10800 41.88500
C  -2.32500 -0.98100 42.89500
O  -3.28500 -0.34000 42.56900
C  -2.49000 -2.43600 43.22700
N  2.98400 -2.23900 44.61900
C  1.73200 -2.88100 44.59300
C  1.80300 -4.39600 45.06100
C  3.31600 -4.49100 45.58100
C  3.86000 -3.01900 45.28400
C  0.72300 -4.97700 46.10400
C  4.23400 -5.64500 44.96900
C  5.28000 -6.17800 46.06800
N  5.16300 -0.35600 44.84000
C  5.79800 -1.43100 45.42800
C  7.17100 -1.05900 45.74700
C  7.33000 0.28900 45.33400
C  6.08400 0.65300 44.70700
C  8.16200 -1.87500 46.53500
C  8.23900 1.46700 45.15000
O  9.42700 1.57800 45.35600
C  7.35200 2.56500 44.42300
C  7.28300 3.74500 45.35300
O  8.21800 4.56900 45.51300
O  6.00100 3.85400 45.87200
C  5.72900 5.05600 46.58700
H  1.07500 3.03200 41.74900
H  -0.29600 -2.83600 44.31900
H  5.70000 -3.41500 46.16300
H  5.37600 4.70000 43.22100
H  3.29100 4.31200 41.27000
H  1.94000 4.68000 43.42800
H  3.04000 6.04200 42.84300
H  3.31500 5.08500 44.27200
H  7.12000 3.81500 41.88000
H  5.98200 4.60800 40.75500
H  5.33900 1.84600 40.80400
H  7.15200 1.96400 40.80900
H  -1.46500 2.03800 40.79700
H  -1.16500 3.10900 42.18100
H  -2.53000 2.14700 42.16900
H  -3.47600 -2.80900 42.94800
H  -2.33200 -2.65600 44.28300
H  -1.79700 -2.90200 42.52600
H  1.68700 -4.88400 44.09400
H  3.35000 -4.60600 46.66400
H  -0.10700 -5.37000 45.51800
H  0.37900 -4.20700 46.79400
H  1.20300 -5.75500 46.69800
H  4.88900 -5.25300 44.19100
H  3.62800 -6.44500 44.54300
H  6.30700 -6.00900 45.74400
H  5.13600 -7.24800 46.21500
H  5.31200 -5.69700 47.04500
H  8.31600 -2.82100 46.01700
H  7.75800 -2.08300 47.52600
H  9.13600 -1.39100 46.60500
H  7.97000 2.88400 43.58400
H  4.67500 5.07800 46.86300
H  6.08300 5.93000 46.04000
H  6.20600 5.06600 47.56700
Mg 1.39700 7.67200 26.33400
C  1.72400 9.74100 29.05100
C  2.01300 4.99100 28.38100
C  1.18200 5.57500 23.58000
C  1.22200 10.43500 24.24700
N  1.88100 7.36900 28.50400
C  1.86000 8.39700 29.40300
C  2.08800 7.91400 30.75300
C  2.40000 6.43300 30.60700
C  2.12200 6.20500 29.05700
C  3.81300 5.91300 31.04400
C  0.86900 8.21500 31.69000
C  1.18400 8.50600 33.19800
H  2.44800 7.85400 33.79200
N  1.46600 5.54900 26.07500
C  1.71900 4.62900 27.07800
C  1.70700 3.27200 26.49500
C  1.45400 3.42700 25.06400
C  1.33100 4.87900 24.84700
C  1.96100 1.99300 27.27600
C  1.22600 2.33500 24.04500
O  0.94200 2.65000 22.87600
C  1.34900 0.88300 24.32000
N  1.30400 7.94800 24.20100
C  1.17000 6.94200 23.33200
C  0.89900 7.47700 21.91600
C  0.64800 9.06900 22.12400
C  1.00600 9.14600 23.65000
C  2.06300 7.12000 20.94100
C  -0.80600 9.55500 21.87400
C  -1.00500 10.45600 20.64600
N  1.52400 9.70800 26.54100
C  1.45100 10.73400 25.59600
C  1.56500 12.05000 26.26300
C  1.69000 11.65900 27.61700
C  1.66900 10.24300 27.72900
C  1.49300 13.37100 25.67200
C  1.73800 12.19000 28.99500
O  1.68200 13.31300 29.42100
C  1.80500 10.95700 29.96500
C  2.97400 11.12000 30.84400
O  4.12200 10.98100 30.39200
O  2.68100 11.28600 32.16300
C  3.77100 11.25200 33.13300
H  2.21100 4.15900 29.06000
H  1.15400 4.90100 22.72100
H  1.03400 11.27000 23.56900
H  2.96600 8.42700 31.14700
H  1.62000 5.81700 31.05600
H  4.56300 6.57700 31.47500
H  4.27400 5.43500 30.18000
H  3.77100 5.07400 31.73900
H  0.12500 7.42500 31.58700
H  0.27300 9.01100 31.24400
H  0.33700 8.21300 33.81900
H  1.41300 9.55400 33.38900
H  2.02800 2.15000 28.35200
H  2.91300 1.54300 26.99300
H  1.08700 1.34400 27.22400
H  1.03600 0.37200 23.41000
H  0.74800 0.54700 25.16600
H  2.36800 0.65900 24.63600
H  -0.06900 7.08000 21.61000
H  1.35900 9.68000 21.56800
H  1.72500 6.67300 20.00600
H  2.74700 6.40500 21.39900
H  2.59200 8.06400 20.80800
H  -1.22600 10.10700 22.71400
H  -1.49800 8.72100 21.75500
H  -0.24900 10.22000 19.89700
H  -0.86300 11.48900 20.96200
H  -2.04500 10.34200 20.34300
H  1.26400 14.14800 26.40100
H  0.76200 13.44400 24.86700
H  2.50500 13.65900 25.38700
H  0.85200 11.05500 30.48600
H  4.47400 12.08100 33.04700
H  4.27000 10.28300 33.12600
H  3.36500 11.36600 34.13800


