%nproc=24
%mem=175gb
#p cam-b3lyp/Def2SVP td=(nstates=5) density=(transition=1)

TDDFT excited states in gaussian

0 1
Mg 40.61000 41.38800 26.95600
C  39.86800 43.56800 29.58900
C  41.56600 39.09100 29.09600
C  42.01100 39.61800 24.36600
C  40.07100 44.02500 24.67100
N  40.59100 41.34900 29.06300
C  40.20000 42.29100 29.98900
C  40.16900 41.71800 31.40000
C  40.93300 40.36900 31.20600
C  40.94200 40.20500 29.72600
C  42.27000 40.16100 31.88400
C  38.74600 41.61400 32.03600
C  38.70900 41.06400 33.46600
H  37.95300 41.90400 34.48500
N  41.75400 39.53700 26.76500
C  41.90400 38.67000 27.78800
C  42.49400 37.45600 27.29600
C  42.73100 37.64100 25.92300
C  42.16600 38.98800 25.63800
C  42.83400 36.26800 28.17100
C  43.30000 36.69700 24.91500
O  43.61700 36.97700 23.72800
C  43.50600 35.23000 25.27200
N  41.00200 41.78000 24.87100
C  41.64700 40.91600 24.05300
C  41.55500 41.44600 22.52200
C  40.51800 42.61700 22.64600
C  40.44500 42.80800 24.12700
C  42.99600 41.87100 22.03700
C  39.09100 42.15200 22.17700
C  38.49200 40.88200 22.76100
N  40.00500 43.44200 27.05400
C  39.84200 44.33300 26.02900
C  39.43100 45.53300 26.59500
C  39.42300 45.36800 28.01000
C  39.78400 44.06700 28.24300
C  39.15600 46.83600 25.93100
C  39.20700 45.98800 29.33700
O  38.93200 47.12500 29.70300
C  39.39600 44.78700 30.41700
C  40.24300 45.23600 31.55400
O  41.22600 46.02900 31.45500
O  39.66700 44.79200 32.66300
C  40.07000 45.50000 33.86300
H  41.79000 38.25100 29.75700
H  42.42000 39.05300 23.52500
H  39.79000 44.77400 23.92900
H  40.67200 42.47500 32.00200
H  40.36400 39.50500 31.55100
H  42.49900 40.80900 32.73000
H  43.06200 40.23200 31.13800
H  42.35700 39.09400 32.09000
H  38.09900 41.02000 31.39000
H  38.28900 42.60300 32.04400
H  39.66400 41.20800 33.97100
H  38.39800 40.01900 33.48100
H  42.71500 36.43800 29.24100
H  43.88400 35.97700 28.18900
H  42.26200 35.37200 27.92800
H  44.31400 35.17500 26.00100
H  43.97700 34.67500 24.46100
H  42.58300 34.72100 25.55200
H  41.23200 40.63200 21.87300
H  40.99300 43.46400 22.15100
H  43.79600 41.51800 22.68800
H  43.14700 42.94900 21.97800
H  43.27300 41.44900 21.07200
H  39.29200 42.04500 21.11100
H  38.30900 42.90300 22.28500
H  39.25300 40.32600 23.30900
H  37.94200 40.24300 22.07100
H  37.70100 41.27300 23.40100
H  38.42700 46.78300 25.12200
H  40.10600 47.12900 25.48500
H  38.86200 47.61200 26.63700
H  38.38700 44.62200 30.79400
H  39.19900 45.70100 34.48800
H  40.53400 46.47500 33.71600
H  40.74300 44.82600 34.39400
Mg 15.77600 52.08200 25.40200
C  17.41000 50.69800 28.22000
C  13.20100 52.90800 27.42100
C  14.25400 53.22200 22.73700
C  18.25300 50.46100 23.37600
N  15.27500 51.74600 27.60200
C  16.22500 51.39100 28.54500
C  15.65700 51.73300 29.88000
C  14.15600 51.89200 29.63600
C  14.16000 52.23400 28.12500
C  13.39700 50.53700 29.89600
C  16.28100 53.03000 30.62900
C  16.58500 52.99000 32.15800
H  15.44800 52.47100 33.08500
N  13.93500 52.94500 25.15100
C  13.06900 53.20000 26.08700
C  11.87700 53.79900 25.46200
C  12.22000 54.11300 24.11200
C  13.51400 53.39600 23.93000
C  10.48000 54.11300 26.11100
C  11.50000 54.93700 23.04500
O  11.87100 55.02600 21.85900
C  10.19300 55.49000 23.36500
N  16.14700 51.69600 23.28800
C  15.39400 52.41700 22.36500
C  16.06600 52.28500 20.94400
C  17.38400 51.52800 21.24300
C  17.29200 51.23400 22.74200
C  15.13200 51.68100 19.89500
C  18.69000 52.21600 20.77200
C  19.80100 51.32100 20.17500
N  17.47400 50.82500 25.67600
C  18.34200 50.20900 24.78000
C  19.41200 49.59700 25.52600
C  19.05500 49.71600 26.87000
C  17.86300 50.48800 26.94600
C  20.58200 49.01900 25.00900
C  19.46500 49.44600 28.25600
O  20.44600 48.90400 28.74000
C  18.40300 50.10900 29.19300
C  17.85700 49.01900 30.09800
O  16.99100 48.18400 29.96600
O  18.53900 49.25300 31.25700
C  18.03900 48.60700 32.49400
H  12.40000 53.26000 28.07500
H  13.81800 53.79200 21.91400
H  19.12700 50.15700 22.79700
H  15.77300 50.97700 30.65700
H  13.74100 52.77300 30.12500
H  12.38500 50.66400 30.27900
H  13.84800 49.93600 30.68600
H  13.32800 50.06400 28.91700
H  15.69100 53.91000 30.37500
H  17.23100 53.29600 30.16400
H  16.68900 54.04900 32.39700
H  17.49400 52.38900 32.18400
H  10.24800 55.17100 26.23100
H  10.47100 53.63100 27.08900
H  9.61500 53.80800 25.52200
H  10.23700 56.09500 24.27100
H  9.45700 54.69600 23.49200
H  9.96700 56.22700 22.59500
H  16.38500 53.29100 20.67100
H  17.33800 50.51100 20.85400
H  15.24100 50.59600 19.90400
H  15.36700 51.95500 18.86700
H  14.10200 51.79300 20.23200
H  19.14000 52.87200 21.51700
H  18.48100 52.96500 20.00700
H  20.48500 51.15800 21.00800
H  20.30400 51.95600 19.44500
H  19.37300 50.39500 19.79200
H  21.13200 48.28300 25.59500
H  21.23200 49.84300 24.71300
H  20.26200 48.46700 24.12600
H  18.86400 50.90900 29.77200
H  18.09100 49.38900 33.25100
H  18.61600 47.75900 32.86200
H  16.99700 48.31500 32.36600


