%nproc=24
%mem=175gb
#p cam-b3lyp/Def2SVP td=(nstates=5)

TDDFT excited states in gaussian

0 1
Mg 40.61000 41.38800 26.95600
C  39.86800 43.56800 29.58900
C  41.56600 39.09100 29.09600
C  42.01100 39.61800 24.36600
C  40.07100 44.02500 24.67100
N  40.59100 41.34900 29.06300
C  40.20000 42.29100 29.98900
C  40.16900 41.71800 31.40000
C  40.93300 40.36900 31.20600
C  40.94200 40.20500 29.72600
C  42.27000 40.16100 31.88400
C  38.74600 41.61400 32.03600
C  38.70900 41.06400 33.46600
H  37.95300 41.90400 34.48500
N  41.75400 39.53700 26.76500
C  41.90400 38.67000 27.78800
C  42.49400 37.45600 27.29600
C  42.73100 37.64100 25.92300
C  42.16600 38.98800 25.63800
C  42.83400 36.26800 28.17100
C  43.30000 36.69700 24.91500
O  43.61700 36.97700 23.72800
C  43.50600 35.23000 25.27200
N  41.00200 41.78000 24.87100
C  41.64700 40.91600 24.05300
C  41.55500 41.44600 22.52200
C  40.51800 42.61700 22.64600
C  40.44500 42.80800 24.12700
C  42.99600 41.87100 22.03700
C  39.09100 42.15200 22.17700
C  38.49200 40.88200 22.76100
N  40.00500 43.44200 27.05400
C  39.84200 44.33300 26.02900
C  39.43100 45.53300 26.59500
C  39.42300 45.36800 28.01000
C  39.78400 44.06700 28.24300
C  39.15600 46.83600 25.93100
C  39.20700 45.98800 29.33700
O  38.93200 47.12500 29.70300
C  39.39600 44.78700 30.41700
C  40.24300 45.23600 31.55400
O  41.22600 46.02900 31.45500
O  39.66700 44.79200 32.66300
C  40.07000 45.50000 33.86300
H  41.79000 38.25100 29.75700
H  42.42000 39.05300 23.52500
H  39.79000 44.77400 23.92900
H  40.67200 42.47500 32.00200
H  40.36400 39.50500 31.55100
H  42.49900 40.80900 32.73000
H  43.06200 40.23200 31.13800
H  42.35700 39.09400 32.09000
H  38.09900 41.02000 31.39000
H  38.28900 42.60300 32.04400
H  39.66400 41.20800 33.97100
H  38.39800 40.01900 33.48100
H  42.71500 36.43800 29.24100
H  43.88400 35.97700 28.18900
H  42.26200 35.37200 27.92800
H  44.31400 35.17500 26.00100
H  43.97700 34.67500 24.46100
H  42.58300 34.72100 25.55200
H  41.23200 40.63200 21.87300
H  40.99300 43.46400 22.15100
H  43.79600 41.51800 22.68800
H  43.14700 42.94900 21.97800
H  43.27300 41.44900 21.07200
H  39.29200 42.04500 21.11100
H  38.30900 42.90300 22.28500
H  39.25300 40.32600 23.30900
H  37.94200 40.24300 22.07100
H  37.70100 41.27300 23.40100
H  38.42700 46.78300 25.12200
H  40.10600 47.12900 25.48500
H  38.86200 47.61200 26.63700
H  38.38700 44.62200 30.79400
H  39.19900 45.70100 34.48800
H  40.53400 46.47500 33.71600
H  40.74300 44.82600 34.39400
Mg 6.73600 57.36100 41.87100
C  5.57600 54.03200 41.84400
C  9.54700 56.26000 40.29200
C  7.50300 60.62700 41.21800
C  3.48900 58.25400 43.03700
N  7.42000 55.35200 41.01200
C  6.89900 54.10900 41.23100
C  7.68800 53.00900 40.50000
C  9.08300 53.80000 40.39600
C  8.66300 55.23700 40.58100
C  10.16800 53.39100 41.42800
C  7.12500 52.63700 39.05500
C  7.43400 51.26500 38.47600
H  8.38100 51.07500 37.27200
N  8.34400 58.41300 40.90600
C  9.44600 57.74300 40.46000
C  10.47100 58.62900 40.12400
C  9.93400 59.94200 40.40300
C  8.52300 59.74000 40.83800
C  11.84700 58.22300 39.61000
C  10.74100 61.20700 40.21700
O  11.93000 61.13100 39.81300
C  10.22200 62.63600 40.60600
N  5.63100 59.10700 42.11600
C  6.19700 60.37100 41.79700
C  5.36400 61.47100 42.39400
C  3.99000 60.81500 42.65100
C  4.37000 59.30600 42.68800
C  5.80500 62.13900 43.71600
C  2.94100 61.09300 41.45000
C  2.15100 62.39300 41.46200
N  4.97100 56.31000 42.51500
C  3.75500 56.80200 42.96500
C  2.84300 55.78700 43.18500
C  3.53400 54.62400 42.80400
C  4.81800 55.00700 42.38100
C  1.45400 55.97300 43.70900
C  3.46600 53.25900 42.78000
O  2.61500 52.50900 43.21600
C  4.68000 52.84700 41.92100
C  4.09400 52.40300 40.61400
O  3.41000 53.09000 39.92100
O  4.40200 51.06200 40.37800
C  3.73000 50.54700 39.23600
H  10.54100 55.93300 39.97900
H  7.77500 61.68500 41.22200
H  2.57200 58.59300 43.52300
H  7.89200 52.14900 41.13700
H  9.49500 53.56500 39.41500
H  10.79300 52.70800 40.85200
H  9.75000 52.84400 42.27300
H  10.76800 54.24600 41.74000
H  7.52400 53.32000 38.30500
H  6.05400 52.83900 39.08200
H  6.45300 50.86600 38.21400
H  7.81100 50.65000 39.29300
H  12.72600 58.79500 39.90900
H  11.62200 58.24700 38.54400
H  12.11100 57.23800 39.99500
H  10.03600 62.67400 41.67900
H  9.32800 62.73100 39.99000
H  10.83200 63.47600 40.27400
H  5.23800 62.21700 41.61000
H  3.54200 61.14600 43.58800
H  5.15700 61.94700 44.57100
H  6.23700 63.12400 43.53800
H  6.70300 61.58800 43.99500
H  2.28600 60.23100 41.57500
H  3.43700 61.03400 40.48100
H  2.26900 62.89100 40.50000
H  2.53500 63.03900 42.25200
H  1.08300 62.20800 41.58000
H  0.80400 55.41700 43.03400
H  1.12000 57.01000 43.65700
H  1.32300 55.57400 44.71500
H  5.17600 52.01400 42.41800
H  2.78900 50.09000 39.54100
H  4.23500 49.69300 38.78300
H  3.52200 51.31600 38.49400


