%nproc=24
%mem=175gb
#p cam-b3lyp/Def2SVP td=(nstates=5) density=(transition=1)

TDDFT excited states in gaussian

0 1
Mg 46.26900 25.13700 28.87000
C  47.26400 27.26100 31.45200
C  45.06800 22.98000 31.10200
C  46.59300 22.69600 26.49900
C  47.58600 27.40300 26.57500
N  46.02800 25.20400 31.05400
C  46.48600 26.15500 31.85900
C  45.98900 25.86800 33.32200
C  45.39300 24.44600 33.19000
C  45.51200 24.15500 31.69700
C  46.24000 23.30800 33.94900
C  44.92100 26.90700 33.89400
C  45.18000 27.25800 35.31900
H  44.05100 27.15600 36.33300
N  45.85600 23.12600 28.82000
C  45.33200 22.40200 29.85800
C  44.87200 21.10600 29.34000
C  45.32500 21.03600 27.99300
C  46.00600 22.31800 27.74700
C  44.15900 20.03600 30.22700
C  45.21800 19.84800 26.99000
O  45.63600 19.88000 25.83800
C  44.54500 18.61000 27.44900
N  46.98900 25.03900 26.90500
C  47.10000 23.90200 26.09900
C  47.90400 24.25000 24.81900
C  47.61600 25.80400 24.63200
C  47.36900 26.07600 26.14300
C  49.38900 23.83600 24.90100
C  46.42100 26.18700 23.80600
C  45.03400 26.12100 24.37300
N  47.05200 27.04800 28.89500
C  47.58500 27.84200 27.90600
C  48.07800 29.11700 28.43200
C  48.07000 28.90600 29.88400
C  47.43900 27.61600 30.07900
C  48.67900 30.18600 27.67300
C  48.43700 29.46600 31.17900
O  49.02500 30.43400 31.48700
C  47.84100 28.42700 32.26500
C  48.81200 28.03800 33.35100
O  49.55700 27.06300 33.31900
O  48.64800 28.91100 34.42600
C  49.48500 28.68900 35.61900
H  44.47200 22.24900 31.65300
H  46.68200 21.86300 25.79800
H  47.89200 28.10500 25.79700
H  46.81500 25.79600 34.03000
H  44.37900 24.31000 33.56600
H  45.81000 23.21000 34.94600
H  47.29000 23.54400 34.12000
H  46.10500 22.37300 33.40400
H  43.90600 26.51300 33.84000
H  44.83700 27.84500 33.34500
H  45.39600 28.32500 35.27200
H  46.03100 26.79100 35.81400
H  44.95600 19.41500 30.63500
H  43.40600 19.48400 29.66400
H  43.77200 20.42600 31.16900
H  44.70200 18.21100 28.45100
H  44.79100 17.78900 26.77600
H  43.48800 18.66000 27.18600
H  47.38400 23.69600 24.03800
H  48.47400 26.33800 24.22400
H  50.12500 24.61500 24.70200
H  49.61300 22.90600 24.37800
H  49.63200 23.53200 25.91900
H  46.32100 25.62700 22.87700
H  46.56100 27.21900 23.48400
H  44.87400 27.14600 24.70700
H  44.90600 25.48200 25.24700
H  44.33600 25.84200 23.58300
H  48.36400 31.10800 28.16200
H  48.25000 30.14800 26.67200
H  49.76500 30.10200 27.69900
H  47.00200 28.92500 32.75100
H  50.51900 28.64400 35.27600
H  49.25400 27.73000 36.08200
H  49.44300 29.39800 36.44600
Mg -9.12600 18.73000 43.07000
C  -5.62300 18.44500 42.86700
C  -8.71100 22.08300 42.24600
C  -12.43100 19.03300 42.79300
C  -9.30300 15.26600 42.95700
N  -7.32000 20.02500 42.45300
C  -5.96700 19.76600 42.55400
C  -5.07000 20.98600 42.54900
C  -6.06600 22.15700 42.37300
C  -7.44800 21.42600 42.33500
C  -5.98600 23.25800 43.50700
C  -3.93600 21.03100 41.43000
C  -4.22600 20.35100 40.08200
H  -4.56600 21.25200 38.85800
N  -10.36200 20.30600 42.60500
C  -10.01500 21.60400 42.35900
C  -11.22400 22.42800 42.22000
C  -12.33600 21.54600 42.38200
C  -11.71100 20.20500 42.59800
C  -11.19700 23.93200 41.97500
C  -13.79400 22.10700 42.18800
O  -13.91800 23.28100 41.86800
C  -15.04600 21.14100 42.31600
N  -10.60200 17.36400 42.77700
C  -11.94900 17.71100 42.85200
C  -12.88700 16.37600 42.87100
C  -11.75200 15.22000 42.76300
C  -10.48500 16.00900 42.84500
C  -13.77000 16.28100 44.15000
C  -11.80700 14.33600 41.44400
C  -11.81900 12.80500 41.57400
N  -7.76200 17.11800 43.06200
C  -7.94400 15.76000 43.00400
C  -6.61700 15.11000 42.96500
C  -5.67900 16.17500 43.03100
C  -6.45600 17.36700 43.03800
C  -6.31500 13.64100 42.85700
C  -4.23100 16.45300 42.98800
O  -3.23100 15.72200 43.03800
C  -4.16400 17.97000 43.08300
C  -3.54200 18.42400 44.28100
O  -4.15400 18.45500 45.38000
O  -2.21800 18.84600 44.04800
C  -1.49600 19.49100 45.14000
H  -8.63900 23.16900 42.16100
H  -13.51700 19.11600 42.86600
H  -9.44500 14.18400 42.98300
H  -4.61500 20.94700 43.53800
H  -5.92300 22.50900 41.35200
H  -5.58200 24.18000 43.08900
H  -5.32600 22.85000 44.27300
H  -6.97200 23.48100 43.91600
H  -3.14100 20.46400 41.91600
H  -3.60700 22.06200 41.29800
H  -5.03700 19.62900 40.18300
H  -3.36900 19.72900 39.82700
H  -11.41500 24.23200 40.95000
H  -10.31200 24.38600 42.42100
H  -11.94400 24.43600 42.58800
H  -14.90900 20.56900 43.23400
H  -15.05000 20.49700 41.43700
H  -16.00600 21.63900 42.18000
H  -13.59700 16.50100 42.05400
H  -11.83300 14.61300 43.66500
H  -13.23300 15.66500 44.87100
H  -14.78200 15.93400 43.94100
H  -13.98700 17.24300 44.61400
H  -10.98000 14.66700 40.81500
H  -12.76100 14.64800 41.01900
H  -11.51100 12.31300 40.65100
H  -12.86600 12.60200 41.79800
H  -11.12600 12.60300 42.39100
H  -7.19000 13.22900 42.35500
H  -6.33400 13.32500 43.90000
H  -5.34100 13.39500 42.43300
H  -3.56700 18.21200 42.20400
H  -1.27600 18.88800 46.02100
H  -2.03900 20.37600 45.47300
H  -0.61300 19.94900 44.69400


