%nproc=24
%mem=175gb
#p cam-b3lyp/Def2SVP td=(nstates=5)

TDDFT excited states in gaussian

0 1
Mg 8.88300 3.35600 27.86700
C  10.38300 1.75300 30.56400
C  7.38700 5.53100 30.05200
C  7.19500 4.67800 25.21800
C  10.33700 0.83700 25.82400
N  8.85600 3.59100 30.04700
C  9.65000 2.88400 30.91100
C  9.43500 3.49700 32.29700
C  8.27700 4.46700 32.14400
C  8.19100 4.56300 30.62500
C  6.95700 4.16900 32.80300
C  10.74000 4.12300 32.98500
C  10.49500 4.94200 34.29300
H  10.56500 4.20300 35.65500
N  7.60700 4.98100 27.67200
C  7.08500 5.72600 28.67800
C  6.18300 6.66800 28.06800
C  6.13000 6.40800 26.66700
C  6.96700 5.31400 26.45500
C  5.47200 7.68700 28.90400
C  5.19000 7.09800 25.63600
O  4.95300 6.60000 24.55000
C  4.43400 8.30700 25.92000
N  8.80500 2.84800 25.93900
C  8.07600 3.55600 24.98400
C  8.26300 2.99400 23.56400
C  9.45300 1.99700 23.77400
C  9.56600 1.92700 25.28800
C  7.04500 2.56000 22.85900
C  10.87100 2.27700 23.02500
C  11.45600 1.24800 22.05300
N  10.10500 1.54900 28.11900
C  10.57400 0.66100 27.19200
C  11.35500 -0.36000 27.80500
C  11.38100 0.07200 29.18600
C  10.52100 1.19800 29.31900
C  12.01900 -1.46000 27.06800
C  11.98300 -0.20000 30.47100
O  12.81500 -0.99400 30.86400
C  11.31100 0.93300 31.44800
C  10.73600 0.32300 32.67400
O  9.77600 -0.41600 32.67100
O  11.39000 0.69300 33.78900
C  10.74800 0.34700 35.11500
H  6.95000 6.26000 30.73800
H  6.63700 5.11600 24.38800
H  10.70900 0.18100 25.03400
H  9.14100 2.60500 32.85000
H  8.55100 5.42600 32.58300
H  6.38200 3.89500 31.91900
H  6.56900 5.01600 33.36900
H  6.99000 3.26400 33.41000
H  11.10800 4.77800 32.19500
H  11.45800 3.33300 33.20200
H  9.50400 5.39400 34.30500
H  11.21400 5.76100 34.31200
H  5.72000 7.75000 29.96400
H  4.42300 7.39300 28.89100
H  5.49900 8.68800 28.47300
H  3.85400 8.38500 26.83900
H  3.77700 8.64800 25.12000
H  5.21700 9.06500 25.91700
H  8.64800 3.90400 23.10300
H  8.95400 1.07600 23.47300
H  6.77200 3.11000 21.95800
H  6.21600 2.63700 23.56300
H  7.08300 1.53300 22.49600
H  11.62300 2.42400 23.80000
H  10.95600 3.19100 22.43600
H  12.28200 0.65800 22.45100
H  11.66900 1.63000 21.05500
H  10.70100 0.47500 21.90900
H  11.30800 -1.87500 26.35400
H  12.43500 -2.21900 27.73000
H  12.73100 -1.00300 26.38000
H  12.14100 1.55900 31.77400
H  11.59600 0.40500 35.79700
H  10.32500 -0.65500 35.04600
H  10.03300 1.14100 35.33100
Mg 25.94600 0.51000 29.41700
C  27.75500 0.04800 32.42200
C  23.08400 0.98300 31.28700
C  24.18800 0.65700 26.52400
C  28.83500 -0.18800 27.55800
N  25.56000 0.39300 31.59400
C  26.46800 0.41400 32.65000
C  25.73500 0.61600 34.03900
C  24.24300 0.62700 33.61200
C  24.25900 0.61600 32.06700
C  23.30400 -0.50900 34.16600
C  26.25400 1.80200 34.95100
C  26.76400 1.39400 36.30000
H  26.45300 2.38700 37.48900
N  23.95800 0.76900 29.03000
C  22.92100 1.01800 29.90600
C  21.67800 1.14300 29.16100
C  21.94400 1.05800 27.76500
C  23.43600 0.83800 27.70800
C  20.32000 1.49500 29.80100
C  21.00100 1.19500 26.57400
O  21.36800 1.18900 25.41700
C  19.44600 1.46900 26.69600
N  26.43900 0.16900 27.31600
C  25.54800 0.29300 26.34100
C  26.18900 0.06900 24.92500
C  27.73100 -0.01000 25.26000
C  27.69500 0.01500 26.81800
C  25.54500 -1.13400 24.17700
C  28.51900 1.10000 24.59300
C  29.85400 0.64900 24.00300
N  27.89800 -0.11200 29.79400
C  28.99000 -0.26300 28.96100
C  30.08800 -0.69100 29.77200
C  29.69800 -0.55100 31.12700
C  28.32100 -0.19300 31.11800
C  31.42300 -1.10700 29.28200
C  30.17600 -0.59300 32.52000
O  31.23000 -0.96300 33.02900
C  28.81000 -0.12800 33.44600
C  28.50200 -1.15100 34.39600
O  27.57900 -1.93000 34.29600
O  29.31100 -1.04800 35.50500
C  29.06500 -2.12600 36.49500
H  22.18200 1.26000 31.83700
H  23.66500 0.64600 25.56600
H  29.70300 -0.30600 26.90500
H  25.82900 -0.35200 34.53000
H  23.76600 1.56200 33.90600
H  22.35300 -0.03400 34.40900
H  23.77900 -0.95200 35.04100
H  23.10600 -1.31400 33.45800
H  25.42400 2.50500 35.02300
H  27.09400 2.25600 34.42500
H  27.85000 1.29700 36.26800
H  26.30600 0.41800 36.45800
H  20.08400 2.49100 29.42800
H  20.46000 1.63600 30.87300
H  19.49000 0.83300 29.55100
H  19.31200 2.38400 27.27400
H  18.87900 0.57700 26.96400
H  19.10200 1.53100 25.66400
H  26.08400 0.92600 24.26000
H  28.04800 -1.00900 24.96000
H  26.34500 -1.78700 23.82700
H  24.86300 -0.83400 23.38100
H  24.93000 -1.70700 24.86900
H  28.70300 1.93600 25.26700
H  27.98200 1.61200 23.79300
H  30.10400 -0.36600 24.31200
H  30.60900 1.32100 24.41200
H  29.90400 0.79600 22.92400
H  31.58400 -1.10700 28.20400
H  31.68500 -2.00300 29.84600
H  32.04200 -0.24000 29.51400
H  29.03700 0.80200 33.96800
H  29.24700 -3.09800 36.03600
H  28.05200 -1.96800 36.86500
H  29.74500 -2.08500 37.34500


