%nproc=24
%mem=175gb
#p cam-b3lyp/Def2SVP td=(nstates=5) density=(transition=1)

TDDFT excited states in gaussian

0 1
Mg 2.79300 -0.99900 44.50000
C  6.05500 -0.17400 43.38400
C  1.60600 1.42400 42.43900
C  -0.30000 -2.33900 44.94400
C  4.15400 -3.74300 46.12200
N  3.83100 0.31200 42.98000
C  5.15200 0.58300 42.74000
C  5.32600 1.71500 41.79700
C  3.88200 2.40600 41.78900
C  3.05100 1.33800 42.41400
C  3.87900 3.72200 42.55000
C  5.83700 1.13000 40.47100
C  7.17200 1.73800 39.86600
H  7.22000 2.30200 38.41400
N  0.88600 -0.54700 43.86000
C  0.60800 0.57500 43.06700
C  -0.81500 0.72700 43.01300
C  -1.42800 -0.37100 43.70600
C  -0.26400 -1.10400 44.27200
C  -1.44600 1.92200 42.31000
C  -2.89700 -0.69100 43.87000
O  -3.66200 0.20700 43.41300
C  -3.55500 -1.99100 44.41300
N  1.99700 -2.80800 45.42300
C  0.68200 -3.10900 45.50100
C  0.40600 -4.46500 46.20300
C  1.84700 -4.85700 46.68000
C  2.74500 -3.73600 45.97300
C  -0.59100 -4.26300 47.33000
C  2.30300 -6.22900 46.28700
C  2.45600 -7.17500 47.44700
N  4.64000 -1.73900 44.89100
C  5.11000 -2.84400 45.61200
C  6.47200 -2.80600 45.78400
C  6.89300 -1.74700 44.95400
C  5.75400 -1.18800 44.37900
C  7.21700 -3.66700 46.78200
C  8.08600 -0.96000 44.54300
O  9.22400 -1.08600 44.87400
C  7.50800 0.01200 43.44600
C  8.17400 1.35500 43.65200
O  9.07700 1.80400 42.94600
O  7.57500 2.04000 44.73700
C  8.09900 3.39600 44.89800
H  1.22700 2.33000 41.96100
H  -1.28000 -2.75100 45.19600
H  4.63400 -4.67900 46.41300
H  6.07700 2.40100 42.18900
H  3.61200 2.61400 40.75400
H  4.50800 3.70600 43.43900
H  2.87200 3.89300 42.93200
H  4.11600 4.58800 41.93200
H  5.03800 1.25300 39.74000
H  5.94100 0.04500 40.47900
H  7.81400 0.85800 39.91300
H  7.65200 2.40300 40.58300
H  -1.04200 2.04400 41.30500
H  -1.16400 2.79800 42.89400
H  -2.51800 1.88200 42.11200
H  -3.31300 -1.96500 45.47500
H  -3.08800 -2.84600 43.92400
H  -4.62700 -2.03100 44.21800
H  -0.01900 -5.22600 45.54900
H  1.95500 -4.64800 47.74400
H  -1.44700 -3.72600 46.92100
H  -0.11100 -3.66200 48.10300
H  -0.92100 -5.12200 47.91300
H  3.28200 -6.24400 45.80800
H  1.69000 -6.76000 45.55900
H  1.86400 -8.06400 47.23300
H  2.03500 -6.78100 48.37200
H  3.49000 -7.42400 47.68800
H  8.18600 -3.18800 46.92600
H  7.36400 -4.68500 46.42200
H  6.59100 -3.65900 47.67400
H  7.98500 -0.36600 42.54100
H  7.35600 4.03900 45.37000
H  8.23900 3.88500 43.93500
H  9.04800 3.42700 45.43400
Mg 53.03600 23.47300 43.74200
C  50.27300 25.68400 43.34900
C  50.89700 20.80500 43.54400
C  55.76900 21.39500 43.06400
C  55.19900 26.21400 43.34600
N  50.76700 23.35900 43.20300
C  49.85000 24.33200 43.33000
C  48.49000 23.71000 43.58900
C  48.66000 22.11500 43.58600
C  50.27200 22.11900 43.58300
C  48.04000 21.54600 44.88200
C  47.47500 24.17900 42.55900
C  47.98000 24.34500 41.10600
H  47.51400 23.28000 40.07600
N  53.32100 21.33300 43.43700
C  52.26200 20.45300 43.38400
C  52.84400 19.14800 43.34900
C  54.26800 19.24400 43.11100
C  54.55100 20.69600 43.23900
C  52.01300 17.88700 43.29400
C  55.22500 18.13300 42.67600
O  54.80000 17.01500 42.45700
C  56.63100 18.33100 42.48800
N  55.16000 23.75300 43.17000
C  56.04500 22.76900 43.10900
C  57.45600 23.24500 42.80400
C  57.16400 24.78400 42.53600
C  55.80000 24.97000 43.09600
C  58.49900 22.99600 44.00000
C  57.34100 25.12500 40.98500
C  58.47200 25.99800 40.52000
N  52.84200 25.47200 43.66600
C  53.82600 26.48100 43.63200
C  53.20700 27.81500 43.74300
C  51.85100 27.50000 43.65700
C  51.62900 26.08900 43.48500
C  53.87500 29.20800 44.01000
C  50.52800 28.13200 43.63200
O  50.14800 29.31100 43.72400
C  49.45600 27.00700 43.45200
C  48.88400 27.41400 42.13800
O  49.50700 27.53100 41.11400
O  47.60700 27.75600 42.28300
C  46.79800 28.12100 41.06800
H  50.22500 19.97800 43.78200
H  56.71400 20.86800 42.91800
H  55.94300 26.97900 43.11200
H  48.29500 24.16100 44.56200
H  48.23100 21.65000 42.69800
H  47.24600 20.85400 44.60200
H  47.57500 22.29200 45.52700
H  48.83900 20.99200 45.37400
H  47.06700 25.14300 42.86300
H  46.65900 23.46100 42.47200
H  49.05000 24.24200 40.92600
H  47.63400 25.33600 40.81200
H  50.94600 18.10600 43.24600
H  52.31600 17.25700 44.13100
H  52.35200 17.31500 42.43100
H  56.90400 19.01600 41.68500
H  57.10100 17.37500 42.25800
H  56.94000 18.76400 43.44000
H  57.86000 22.86500 41.86600
H  58.02800 25.24600 43.01400
H  58.00400 22.45500 44.80700
H  58.78500 23.97500 44.38500
H  59.43300 22.50300 43.72600
H  56.50400 25.71600 40.61300
H  57.40500 24.21500 40.39000
H  58.17800 27.02600 40.30800
H  58.72900 25.47900 39.59600
H  59.39500 25.89600 41.09100
H  54.34600 29.53100 43.08200
H  54.56000 29.07800 44.84800
H  53.08700 29.93100 44.22000
H  48.79600 27.08200 44.31700
H  46.90900 29.16800 40.78500
H  45.73600 27.93300 41.23100
H  47.15900 27.45300 40.28600


