%nproc=24
%mem=175gb
#p cam-b3lyp/Def2SVP td=(nstates=5) density=(transition=1)

TDDFT excited states in gaussian

0 1
Mg 16.95800 -2.04300 28.05800
C  15.67900 0.03700 30.54100
C  18.78700 -3.72100 30.44000
C  18.31300 -3.78900 25.50500
C  15.32700 0.02400 25.64200
N  17.25900 -1.76300 30.19400
C  16.62800 -0.88400 31.01900
C  16.98400 -1.14100 32.48900
C  18.10000 -2.26900 32.35300
C  18.02400 -2.61400 30.86200
C  19.48200 -1.75800 32.74200
C  15.83300 -1.72700 33.38200
C  15.87500 -1.41800 34.85600
H  17.10800 -0.90300 35.45200
N  18.26300 -3.57700 28.00200
C  18.92400 -4.12800 29.11800
C  19.62000 -5.29300 28.63800
C  19.47300 -5.38800 27.23100
C  18.65200 -4.21500 26.84200
C  20.55500 -6.11300 29.50100
C  19.94500 -6.39800 26.27100
O  19.91000 -6.24200 25.06900
C  20.68300 -7.69100 26.77500
N  16.72600 -2.04100 25.82800
C  17.40600 -2.83200 25.05300
C  17.12300 -2.53800 23.54900
C  16.12900 -1.39100 23.56700
C  16.05500 -1.03300 25.09500
C  18.49500 -2.31000 22.75600
C  14.77700 -1.75000 22.91500
C  14.57500 -1.34500 21.40700
N  15.59300 -0.54700 28.03400
C  15.01200 0.20800 26.98500
C  14.13500 1.19500 27.48900
C  14.45500 1.19400 28.91300
C  15.31700 0.08300 29.13900
C  13.41400 2.25000 26.67000
C  14.16900 1.92500 30.09200
O  13.43900 2.88400 30.30900
C  14.95100 1.07800 31.29700
C  15.78000 2.10000 32.01800
O  16.65500 2.79200 31.48700
O  15.36200 2.29400 33.36800
C  16.13600 3.30900 34.14900
H  19.34000 -4.20600 31.24800
H  18.93000 -4.26900 24.74300
H  14.76600 0.65500 24.95000
H  17.39400 -0.20500 32.86900
H  17.90900 -3.13400 32.98800
H  19.41600 -0.81500 33.28400
H  20.16500 -1.70100 31.89400
H  19.97000 -2.35300 33.51400
H  15.82100 -2.80600 33.23200
H  14.89600 -1.40800 32.92500
H  15.72700 -2.36200 35.38000
H  15.08500 -0.70500 35.09200
H  21.59900 -6.03400 29.19800
H  20.20800 -7.14700 29.48400
H  20.60300 -5.83600 30.55400
H  21.71600 -7.39100 26.95300
H  20.76400 -8.41600 25.96500
H  20.25400 -8.04400 27.71200
H  16.67800 -3.47000 23.20000
H  16.55100 -0.48300 23.13900
H  18.49400 -1.34000 22.25900
H  18.63800 -3.00100 21.92500
H  19.26300 -2.34000 23.53000
H  14.01500 -1.24300 23.50800
H  14.64200 -2.82300 23.05200
H  14.22000 -0.31400 21.38800
H  13.95900 -1.97800 20.76800
H  15.61200 -1.30800 21.07500
H  12.51000 1.73500 26.34600
H  13.99600 2.54300 25.79700
H  13.31000 3.23400 27.12900
H  14.20300 0.59900 31.93000
H  16.03100 4.30700 33.72500
H  17.20500 3.14900 34.29200
H  15.57400 3.26700 35.08200
Mg -2.33100 34.27800 27.06700
C  -3.29300 32.73500 29.99200
C  -0.77900 36.82100 29.04000
C  -1.68900 35.99300 24.34500
C  -4.00500 31.86100 25.19100
N  -2.10600 34.64700 29.26400
C  -2.54800 33.87100 30.25800
C  -2.04400 34.45500 31.61800
C  -1.35700 35.84600 31.23800
C  -1.46000 35.80800 29.70100
C  -2.07400 37.11000 31.67200
C  -1.16200 33.50400 32.44100
C  -1.65900 33.38600 33.87200
H  -0.69900 33.03500 35.01800
N  -1.29600 36.10900 26.75300
C  -0.70200 36.96400 27.63600
C  -0.06500 38.02800 26.99800
C  -0.40300 37.90700 25.60500
C  -1.15900 36.61100 25.50300
C  0.74500 39.09500 27.72000
C  -0.12100 38.87200 24.46500
O  -0.65300 38.65500 23.35900
C  0.65800 40.10800 24.66200
N  -2.76200 33.93100 25.11000
C  -2.33900 34.76200 24.09300
C  -2.78500 34.31300 22.65200
C  -3.27700 32.84000 22.98500
C  -3.37800 32.87200 24.52100
C  -3.86900 35.12000 21.83400
C  -2.50400 31.61000 22.32400
C  -1.18700 31.25300 22.96100
N  -3.52800 32.72900 27.43000
C  -4.16000 31.81100 26.61300
C  -4.85300 30.83200 27.34600
C  -4.49800 31.15000 28.66200
C  -3.68000 32.31700 28.68800
C  -5.57400 29.72900 26.69600
C  -4.80700 30.73800 29.97700
O  -5.59800 29.85900 30.32500
C  -4.00900 31.74000 30.96400
C  -4.95800 32.38400 31.85500
O  -5.73200 33.27000 31.57300
O  -4.95600 31.78800 33.04100
C  -5.91200 32.19500 34.02600
H  -0.35300 37.61900 29.65100
H  -1.55300 36.44800 23.36200
H  -4.51800 31.12700 24.56600
H  -2.99900 34.65700 32.10200
H  -0.41300 35.85600 31.78400
H  -2.94800 36.94200 32.30200
H  -2.45800 37.64200 30.80200
H  -1.35600 37.81800 32.08700
H  -0.10200 33.75800 32.45800
H  -1.18900 32.52900 31.95500
H  -2.34600 32.53900 33.87800
H  -2.14000 34.33700 34.10000
H  0.94800 38.81600 28.75400
H  0.13200 39.99100 27.82000
H  1.62000 39.38400 27.13900
H  0.44000 40.83300 23.87700
H  1.70900 39.83900 24.55200
H  0.43200 40.54800 25.63300
H  -1.93500 34.12600 21.99500
H  -4.26000 32.69700 22.53800
H  -4.17100 35.97400 22.43900
H  -4.79700 34.54700 21.82100
H  -3.62200 35.43900 20.82100
H  -2.25200 31.92600 21.31200
H  -3.11500 30.71700 22.19800
H  -1.06000 30.17800 22.83800
H  -0.96900 31.52500 23.99300
H  -0.42200 31.79500 22.40500
H  -5.20900 29.35700 25.73900
H  -6.66000 29.81200 26.67700
H  -5.43800 28.93700 27.43200
H  -3.30800 31.14200 31.54600
H  -5.54400 33.01100 34.64900
H  -6.05600 31.34600 34.69400
H  -6.83100 32.52000 33.53800


