%nproc=24
%mem=175gb
#p cam-b3lyp/Def2SVP td=(nstates=5)

TDDFT excited states in gaussian

0 1
Mg 29.46400 59.14500 41.03800
C  26.57800 57.38900 40.28900
C  31.34900 56.53100 39.78200
C  32.15000 61.18900 41.08600
C  27.35400 61.82000 41.94900
N  28.99200 57.29200 39.87100
C  27.77200 56.74800 39.89300
C  27.77900 55.38900 39.12700
C  29.32900 54.99700 39.21800
C  29.96700 56.34400 39.73200
C  29.58100 53.72700 40.06600
C  27.37400 55.59400 37.68500
C  26.46000 54.52700 37.10300
H  26.57800 54.02100 35.61600
N  31.53300 58.78800 40.65000
C  32.11000 57.71400 40.08400
C  33.51500 57.95800 40.03300
C  33.80600 59.24700 40.57400
C  32.47900 59.81600 40.84000
C  34.47700 56.89100 39.66100
C  35.16200 59.85800 40.59300
O  36.13000 59.21400 40.22400
C  35.39700 61.26400 41.13200
N  29.71300 61.28200 41.56500
C  30.94400 61.84600 41.41400
C  30.85900 63.33400 41.52000
C  29.29200 63.52200 41.79300
C  28.69900 62.13600 41.84900
C  31.79900 63.96200 42.56600
C  28.51800 64.48000 40.78300
C  27.64200 65.63900 41.31400
N  27.43700 59.54700 41.14000
C  26.74400 60.62700 41.58900
C  25.41200 60.28000 41.81900
C  25.25400 58.98400 41.34800
C  26.48900 58.61100 40.88000
C  24.32700 61.25500 42.36300
C  24.37200 57.92800 41.16800
O  23.15900 57.91800 41.34600
C  25.14900 56.75500 40.39700
C  25.25800 55.58200 41.18700
O  25.99300 55.31600 42.14100
O  24.33400 54.68200 40.66500
C  24.17500 53.35900 41.24400
H  31.95200 55.65500 39.53500
H  32.91900 61.96200 41.15300
H  26.80500 62.68200 42.33400
H  27.08300 54.71900 39.63100
H  29.81700 54.88800 38.25000
H  28.66900 53.37400 40.54700
H  30.34000 53.93800 40.82000
H  30.00600 52.97200 39.40500
H  28.16800 55.74800 36.95400
H  26.92700 56.58800 37.67000
H  25.44000 54.85100 37.30900
H  26.66400 53.69100 37.77200
H  34.81300 56.52500 40.63100
H  35.29700 57.28300 39.05900
H  34.02200 56.08300 39.08800
H  35.10600 61.93900 40.32700
H  36.47900 61.37300 41.20200
H  34.84400 61.42100 42.05800
H  31.14300 63.61000 40.50500
H  29.10900 64.04800 42.73000
H  32.59600 64.44300 41.99800
H  32.19100 63.23400 43.27700
H  31.26900 64.75100 43.09900
H  27.85100 63.86700 40.17700
H  29.18800 65.01800 40.11200
H  26.69000 65.11600 41.40400
H  27.54400 66.41700 40.55800
H  27.77900 66.00900 42.33000
H  24.06200 61.95200 41.56900
H  24.63400 61.90700 43.18100
H  23.42900 60.71200 42.65900
H  24.61600 56.61800 39.45600
H  23.13300 53.07400 41.10200
H  24.52900 53.25500 42.27000
H  24.72400 52.65900 40.61400
Mg -5.21000 24.54100 27.19500
C  -3.54100 26.38400 29.69300
C  -6.38000 22.49900 29.72600
C  -6.78300 22.59100 24.87600
C  -3.73200 26.39300 24.81700
N  -5.00900 24.47500 29.48500
C  -4.39300 25.40300 30.31600
C  -4.77800 25.15700 31.76100
C  -5.38000 23.70500 31.74000
C  -5.61200 23.56800 30.25200
C  -4.48700 22.58300 32.40100
C  -5.82800 26.14800 32.28500
C  -5.66000 26.57200 33.74800
H  -5.92800 25.52000 34.86000
N  -6.48000 22.85300 27.28100
C  -6.76500 22.19100 28.42600
C  -7.52200 21.02600 28.10100
C  -7.81700 21.04500 26.69400
C  -6.98500 22.14200 26.23200
C  -7.94700 20.03100 29.14500
C  -8.63000 20.10000 25.80900
O  -8.90700 20.38500 24.62300
C  -9.08700 18.72400 26.28000
N  -5.32000 24.55800 25.17000
C  -5.97300 23.61500 24.38200
C  -5.69900 23.91000 22.94300
C  -4.77200 25.17400 22.83700
C  -4.60800 25.45200 24.34000
C  -5.24900 22.67900 22.10000
C  -5.37300 26.38000 22.08300
C  -4.94400 26.45700 20.60500
N  -3.89500 26.01800 27.18100
C  -3.38100 26.77900 26.13200
C  -2.50100 27.90900 26.61000
C  -2.55000 27.71500 28.00000
C  -3.42600 26.62300 28.30100
C  -1.78700 28.93500 25.74900
C  -2.03300 28.27400 29.24000
O  -1.24900 29.20200 29.44300
C  -2.78100 27.47500 30.39000
C  -1.66500 26.98400 31.33300
O  -0.58100 26.54900 31.00300
O  -2.03300 27.27600 32.64500
C  -1.03300 26.85400 33.62600
H  -6.79600 21.92300 30.55500
H  -7.24600 22.04300 24.05300
H  -3.20100 26.86300 23.98700
H  -3.94200 25.15700 32.46000
H  -6.32400 23.59600 32.27400
H  -3.58700 22.93500 32.90600
H  -4.09000 21.81900 31.73300
H  -5.03500 22.07100 33.19200
H  -6.83700 25.75100 32.17600
H  -5.77900 27.08800 31.73500
H  -6.23400 27.46900 33.98000
H  -4.65000 26.93300 33.94100
H  -7.01100 19.85400 29.67500
H  -8.29300 19.05500 28.80500
H  -8.67800 20.40400 29.86200
H  -8.25700 18.16700 26.71500
H  -9.45700 18.28200 25.35500
H  -9.85300 18.80700 27.05100
H  -6.66900 24.06000 22.46800
H  -3.77200 24.98400 22.44500
H  -5.16100 21.82900 22.77700
H  -4.26700 22.88500 21.67500
H  -6.05700 22.54500 21.38000
H  -5.16500 27.26900 22.67800
H  -6.45400 26.27700 21.98600
H  -4.65800 25.46600 20.25200
H  -4.05700 27.05100 20.38400
H  -5.81000 26.77000 20.02100
H  -2.54700 29.61400 25.36200
H  -1.26100 28.53800 24.88100
H  -1.10500 29.45700 26.42000
H  -3.50500 28.04800 30.96900
H  -1.16000 25.83800 34.00100
H  -1.12400 27.59400 34.42100
H  0.01800 26.83100 33.33800


