%nproc=24
%mem=175gb
#p cam-b3lyp/Def2SVP td=(nstates=5) density=(transition=1)

TDDFT excited states in gaussian

0 1
Mg 40.54200 8.71200 29.57000
C  42.46900 10.35300 31.83700
C  38.24000 7.70200 31.93300
C  38.87500 6.96300 27.14400
C  43.10200 9.33000 27.08900
N  40.50700 8.83000 31.66000
C  41.28100 9.79100 32.39300
C  40.70700 10.01900 33.73400
C  39.62800 8.84800 33.81600
C  39.41100 8.39300 32.39000
C  40.09700 7.61800 34.74300
C  40.24300 11.48300 34.00600
C  40.64100 12.04200 35.33400
H  40.55300 11.05000 36.56000
N  38.75400 7.55700 29.53000
C  38.00600 7.28200 30.63600
C  36.89200 6.50300 30.21600
C  36.97400 6.32300 28.78000
C  38.23000 7.03300 28.36500
C  35.87900 5.90900 31.21900
C  36.08100 5.65900 27.77900
O  36.28700 5.46300 26.57600
C  34.68000 5.19900 28.33400
N  40.98100 8.10600 27.39000
C  40.09800 7.49500 26.64000
C  40.46000 7.54300 25.15700
C  41.81600 8.30500 25.16100
C  42.00400 8.59400 26.64900
C  40.56900 6.08800 24.47000
C  41.66000 9.63200 24.29500
C  40.74000 10.78700 24.76200
N  42.48900 9.50900 29.49800
C  43.34000 9.72700 28.43100
C  44.44800 10.55700 28.94600
C  44.20300 10.86700 30.25000
C  42.96700 10.18300 30.54000
C  45.69600 10.84800 28.18600
C  44.66700 11.56800 31.44700
O  45.66700 12.23600 31.65000
C  43.53700 11.23400 32.51700
C  44.17900 10.46300 33.60100
O  44.82400 9.40400 33.50900
O  43.90700 11.19500 34.73900
C  44.28800 10.53200 35.99300
H  37.46200 7.40700 32.64000
H  38.23300 6.48700 26.39900
H  43.84700 9.59300 26.33600
H  41.53500 9.82500 34.41700
H  38.70200 9.27400 34.20100
H  40.95100 7.85100 35.37900
H  40.49700 6.86600 34.06300
H  39.17400 7.30300 35.22800
H  39.15600 11.54000 33.94800
H  40.73700 12.04000 33.21000
H  39.99600 12.85500 35.66500
H  41.60800 12.52200 35.48500
H  35.14900 6.60800 31.62700
H  36.53200 5.46300 31.96900
H  35.20300 5.18600 30.76300
H  34.82100 4.32000 28.96300
H  33.98600 5.15200 27.49500
H  34.17100 5.96300 28.92200
H  39.71300 8.14400 24.63900
H  42.64100 7.73100 24.73900
H  39.67900 5.98600 23.84800
H  40.55600 5.31000 25.23400
H  41.39700 5.86900 23.79700
H  41.39900 9.47200 23.24900
H  42.67000 10.03800 24.36000
H  41.45000 11.59500 24.93900
H  40.14900 10.52600 25.63900
H  40.01100 11.10100 24.01500
H  45.97000 11.83700 28.55200
H  45.54800 10.83600 27.10600
H  46.48500 10.23100 28.61400
H  43.32700 12.24400 32.86800
H  44.09900 11.31400 36.72900
H  45.36500 10.37600 35.93100
H  43.84100 9.55300 36.16700
Mg 48.00100 15.36700 27.57000
C  45.75200 15.79400 30.49800
C  50.04400 17.47200 29.24900
C  49.70300 15.15900 24.90400
C  45.19600 13.91000 25.93200
N  47.85300 16.51500 29.59600
C  46.96000 16.37600 30.64500
C  47.41800 17.01300 31.96200
C  48.55800 17.91800 31.40100
C  48.86700 17.29700 29.98400
C  48.22700 19.37400 31.30400
C  47.82300 16.04400 33.12300
C  47.60700 16.50100 34.52700
H  48.68000 16.07500 35.52400
N  49.72200 16.17900 27.12000
C  50.48900 17.00200 27.97100
C  51.76400 17.20600 27.34600
C  51.69700 16.38300 26.13900
C  50.37000 15.89100 26.04500
C  52.97000 17.98900 27.98500
C  52.83500 16.13800 25.19600
O  52.69500 15.47100 24.14200
C  54.21900 16.61300 25.45000
N  47.52500 14.80200 25.63500
C  48.43700 14.77900 24.66100
C  47.90800 14.19700 23.31100
C  46.65000 13.42700 23.86100
C  46.39500 14.11500 25.23000
C  47.50200 15.31900 22.30200
C  46.93500 11.88100 24.07400
C  47.49500 11.04500 22.90400
N  45.91900 14.88800 28.08600
C  44.96000 14.24100 27.31500
C  43.72700 14.13900 28.06000
C  44.00400 14.69600 29.31500
C  45.32400 15.22300 29.27200
C  42.47900 13.44100 27.63500
C  43.42900 14.97200 30.62500
O  42.35300 14.72000 31.15100
C  44.65500 15.63100 31.44600
C  44.12500 16.85400 32.02400
O  43.69700 17.84400 31.41000
O  43.76300 16.58100 33.31200
C  43.14800 17.60200 34.09800
H  50.71300 18.03200 29.90600
H  50.25500 15.06200 23.96700
H  44.37700 13.44100 25.38200
H  46.60300 17.64800 32.31000
H  49.48300 17.75400 31.95300
H  48.08000 19.59600 30.24700
H  49.08100 19.96700 31.63100
H  47.34400 19.72300 31.83900
H  48.89700 15.88200 33.03600
H  47.33700 15.08800 32.93000
H  46.66100 16.03500 34.80200
H  47.32400 17.55200 34.58700
H  53.79100 17.37200 28.34900
H  52.63200 18.67300 28.76300
H  53.29200 18.60300 27.14300
H  54.25300 17.68500 25.25400
H  54.84800 16.07400 24.74100
H  54.46700 16.31100 26.46700
H  48.71600 13.57900 22.91800
H  45.74000 13.52600 23.27000
H  48.21500 15.26400 21.47900
H  47.43200 16.32600 22.71200
H  46.52600 14.96500 21.96700
H  45.99300 11.38800 24.31300
H  47.54700 11.81000 24.97300
H  48.43400 10.64000 23.28100
H  47.70000 11.78200 22.12700
H  46.83000 10.23200 22.61300
H  42.78200 12.85500 26.76700
H  41.77900 14.22600 27.34900
H  42.00600 12.85500 28.42300
H  44.98300 14.94300 32.22500
H  43.06700 18.54100 33.55000
H  43.82900 17.76200 34.93400
H  42.21500 17.25400 34.53900


