%nproc=24
%mem=175gb
#p cam-b3lyp/Def2SVP td=(nstates=5)

TDDFT excited states in gaussian

0 1
Mg 9.20000 47.36600 24.88000
C  7.02600 47.76900 27.74700
C  11.57000 48.44700 26.79100
C  10.94600 47.19300 22.09000
C  6.29100 46.96700 22.73800
N  9.27600 47.92100 27.10800
C  8.32000 48.03400 28.09600
C  8.93500 48.52700 29.35600
C  10.25500 49.18700 28.88100
C  10.38000 48.52600 27.48800
C  10.19000 50.72500 28.75600
C  9.27100 47.32000 30.28400
C  8.91000 47.48600 31.81100
H  8.76300 46.21000 32.73200
N  11.12300 47.75000 24.52700
C  11.99300 48.08000 25.44400
C  13.30700 48.11300 24.83000
C  13.09300 47.62600 23.51900
C  11.67000 47.53200 23.33600
C  14.56100 48.44000 25.66100
C  14.15200 47.33300 22.49300
O  13.84400 46.95300 21.40300
C  15.59100 47.42400 22.88400
N  8.59400 47.38800 22.62900
C  9.59400 47.15300 21.78200
C  9.10700 46.72400 20.44900
C  7.56400 46.85800 20.64800
C  7.41500 47.09900 22.12700
C  9.70100 47.44000 19.18300
C  6.80800 45.57800 20.11700
C  6.00900 45.65200 18.78600
N  7.17400 47.35700 25.08600
C  6.10400 47.11400 24.19600
C  4.83100 47.11900 24.94600
C  5.17200 47.34400 26.27300
C  6.54300 47.52700 26.33600
C  3.42100 47.05000 24.31100
C  4.55900 47.48400 27.63300
O  3.43200 47.38700 28.05800
C  5.73500 47.94200 28.63300
C  5.68600 47.23700 29.86100
O  6.32700 46.19300 30.04600
O  4.84600 47.74900 30.84500
C  4.90400 47.16700 32.22100
H  12.46500 48.75400 27.33500
H  11.53100 47.07200 21.17600
H  5.40800 46.83900 22.11000
H  8.32300 49.32300 29.78100
H  11.13800 49.00400 29.49300
H  10.92100 51.19300 29.41600
H  9.18200 51.02300 29.04300
H  10.33700 51.10600 27.74500
H  10.35100 47.19900 30.19800
H  8.78700 46.45500 29.83100
H  8.00100 48.08400 31.87000
H  9.74500 48.08400 32.17800
H  15.18900 47.54900 25.70000
H  14.38200 48.83100 26.66200
H  15.20000 49.13500 25.11700
H  15.85600 46.71400 23.66700
H  15.91500 48.35300 23.35300
H  16.20400 47.15000 22.02500
H  9.34100 45.66500 20.34000
H  7.22100 47.78300 20.18400
H  10.49600 48.09000 19.54700
H  9.00000 47.94700 18.51900
H  10.12400 46.67900 18.52700
H  6.07000 45.27200 20.85900
H  7.53000 44.76900 20.22800
H  6.23700 44.78300 18.16900
H  6.25500 46.57800 18.26600
H  4.93600 45.62800 18.98000
H  3.49200 46.43400 23.41500
H  3.14200 48.04200 23.95500
H  2.68000 46.64400 25.00000
H  5.61100 49.00700 28.82700
H  5.88500 47.32300 32.67200
H  4.47300 46.16700 32.25100
H  4.32200 47.83100 32.86000
Mg 0.26000 43.34200 24.75600
C  2.25300 43.09900 27.61800
C  -2.44200 42.42000 26.69400
C  -1.57400 42.87700 21.91500
C  3.14600 43.60500 22.86000
N  -0.01100 42.92700 26.88700
C  0.88400 43.10000 27.86800
C  0.29200 43.09400 29.28500
C  -1.20300 42.68500 28.99500
C  -1.29800 42.75900 27.37000
C  -1.68200 41.32300 29.54200
C  0.44600 44.41100 30.04600
C  0.46000 44.23200 31.57500
H  0.30000 42.82500 32.16800
N  -1.74500 42.84700 24.34000
C  -2.74500 42.55800 25.29700
C  -3.99500 42.34000 24.59700
C  -3.74800 42.40500 23.17500
C  -2.33100 42.75300 23.08200
C  -5.28700 42.18000 25.35000
C  -4.75800 42.32200 21.94400
O  -4.44000 42.53400 20.79900
C  -6.18400 41.93600 22.27200
N  0.72800 43.16000 22.71000
C  -0.18900 43.01100 21.71100
C  0.47200 43.04900 20.28400
C  1.92800 43.34600 20.63900
C  1.92700 43.36400 22.15600
C  0.26000 41.87700 19.24300
C  2.38800 44.69400 20.03600
C  2.04300 46.00200 20.78200
N  2.32100 43.50900 25.09100
C  3.38200 43.61100 24.22900
C  4.61600 43.69300 24.93600
C  4.22700 43.48400 26.33500
C  2.89200 43.36300 26.33900
C  5.99200 43.88800 24.47400
C  4.71200 43.25500 27.68900
O  5.85600 43.34100 28.14800
C  3.47500 43.00100 28.60000
C  3.56600 41.71300 29.28000
O  3.33400 40.61600 28.78300
O  4.17100 41.89000 30.49900
C  4.75700 40.73100 31.20000
H  -3.23100 42.10200 27.37900
H  -2.18100 42.91300 21.00800
H  4.04900 43.78500 22.27300
H  0.67700 42.26400 29.87700
H  -1.92300 43.45600 29.26700
H  -2.57300 41.63600 30.08600
H  -0.94100 40.89700 30.21800
H  -1.87200 40.62800 28.72400
H  -0.32500 45.13200 29.77700
H  1.38300 44.89600 29.77100
H  -0.37400 44.87500 31.85700
H  1.32100 44.72000 32.03400
H  -5.00100 42.06900 26.39600
H  -5.81000 41.30000 24.97500
H  -5.96200 43.02800 25.22500
H  -6.37400 40.88800 22.50600
H  -6.81500 42.27400 21.45000
H  -6.38700 42.55900 23.14300
H  -0.03500 43.91100 19.85100
H  2.51500 42.52100 20.23700
H  1.17400 41.51200 18.77600
H  -0.34600 42.26100 18.42300
H  -0.30900 41.09200 19.74200
H  1.97300 44.71300 19.02900
H  3.46900 44.59400 19.93400
H  1.75200 46.69500 19.99300
H  2.89700 46.44600 21.29300
H  1.29400 45.88900 21.56500
H  6.47500 44.58100 25.16200
H  6.09900 44.26000 23.45500
H  6.57000 42.97800 24.63600
H  3.48200 43.84300 29.29200
H  4.58400 39.79600 30.66600
H  4.26600 40.64900 32.17000
H  5.80700 41.02000 31.22900


