%nproc=24
%mem=175gb
#p cam-b3lyp/Def2SVP td=(nstates=5) density=(transition=1)

TDDFT excited states in gaussian

0 1
Mg -2.04400 17.49100 26.73800
C  -2.15500 15.53600 29.75200
C  -2.48400 20.32400 28.82400
C  -2.10000 19.56800 23.93100
C  -2.02900 14.73500 24.85000
N  -2.50300 17.81300 29.09300
C  -2.37100 16.88400 30.06400
C  -2.66300 17.53000 31.46600
C  -2.96600 19.01100 31.04000
C  -2.55400 19.10600 29.55300
C  -4.45800 19.41500 31.30700
C  -1.49000 17.42200 32.44000
C  -1.82900 17.03100 33.84100
H  -0.68700 16.80800 34.84300
N  -2.05000 19.60600 26.40500
C  -2.24700 20.56500 27.39300
C  -2.18900 21.87200 26.76900
C  -1.98200 21.71100 25.40900
C  -2.11500 20.23400 25.17200
C  -2.46700 23.16900 27.47300
C  -1.85900 22.77200 24.24000
O  -1.68000 22.55800 23.06600
C  -1.78900 24.24000 24.60100
N  -2.21300 17.23900 24.73600
C  -2.21800 18.17300 23.73300
C  -2.50700 17.54400 22.35000
C  -2.23600 16.00100 22.60900
C  -2.12000 15.99700 24.18100
C  -3.92800 17.89500 21.80400
C  -0.96100 15.44100 21.90800
C  0.37100 15.96600 22.43900
N  -2.11100 15.55600 27.12300
C  -2.02800 14.45800 26.22200
C  -2.06000 13.19200 26.95100
C  -2.05400 13.57600 28.30400
C  -2.07200 14.99400 28.37800
C  -2.02800 11.85900 26.36100
C  -2.05700 13.00500 29.64700
O  -1.98500 11.83800 29.99400
C  -2.21400 14.25700 30.66700
C  -1.01500 13.99300 31.58100
O  0.19500 14.13800 31.33000
O  -1.45400 13.50000 32.72600
C  -0.50700 13.41700 33.91100
H  -2.54500 21.19300 29.48200
H  -2.11900 20.13500 22.99700
H  -1.94800 13.88000 24.17600
H  -3.47200 16.92500 31.87400
H  -2.32200 19.72000 31.56200
H  -4.61000 20.30200 31.92200
H  -5.09400 18.58600 31.61800
H  -5.01600 19.78600 30.44700
H  -1.29200 18.47500 32.64100
H  -0.61800 16.92800 32.01000
H  -2.49700 16.18800 34.02500
H  -2.37000 17.90200 34.21100
H  -2.54100 23.02800 28.55100
H  -3.37300 23.68600 27.15300
H  -1.69300 23.93100 27.38000
H  -0.93800 24.47000 25.24200
H  -2.76500 24.39500 25.06100
H  -1.83600 24.73500 23.63100
H  -1.82000 18.06600 21.68300
H  -3.08800 15.32400 22.54300
H  -3.89400 18.55600 20.93800
H  -4.67200 18.26800 22.50700
H  -4.29000 16.90500 21.52600
H  -1.14700 15.45600 20.83400
H  -0.92500 14.37100 22.11200
H  0.30800 16.76300 23.17900
H  0.88600 16.37900 21.57200
H  0.96700 15.25500 23.01000
H  -2.06800 11.03700 27.07600
H  -1.09600 11.82400 25.79700
H  -2.85300 11.79600 25.65000
H  -3.07800 14.15100 31.32300
H  -1.14400 13.30000 34.78800
H  0.04800 14.34000 34.07600
H  0.23900 12.62700 33.81700
Mg -2.51200 34.32000 26.71000
C  -3.70600 32.37000 29.49400
C  -1.09600 36.45200 28.85600
C  -2.23500 36.47200 24.15600
C  -4.45400 32.24200 24.65700
N  -2.47200 34.41100 28.88300
C  -2.84200 33.43600 29.82500
C  -2.27900 33.77800 31.25700
C  -1.51600 35.11400 31.00700
C  -1.64900 35.32300 29.47500
C  -1.96800 36.32500 31.78300
C  -1.39500 32.57400 31.88800
C  -1.81300 32.12300 33.29300
H  -0.66900 32.23700 34.36800
N  -1.63700 36.15800 26.50500
C  -1.11000 36.89500 27.48800
C  -0.61000 38.17800 26.99100
C  -1.04200 38.20400 25.62000
C  -1.69000 36.91400 25.36100
C  0.10900 39.14600 27.82900
C  -0.90500 39.45100 24.69100
O  -1.22300 39.41800 23.51400
C  -0.35500 40.75800 25.16600
N  -3.22300 34.33100 24.76300
C  -2.85500 35.30500 23.84100
C  -3.39300 34.95800 22.41400
C  -3.78700 33.44000 22.55100
C  -3.77600 33.28900 24.07200
C  -4.45800 35.91300 21.78300
C  -2.78800 32.46000 21.87700
C  -3.33300 31.25600 21.15100
N  -3.86100 32.67700 26.98500
C  -4.55900 31.95500 26.05900
C  -5.21600 30.76800 26.76200
C  -4.86600 30.86600 28.08700
C  -4.10200 32.07900 28.18800
C  -5.97600 29.69500 26.01600
C  -4.98700 30.30300 29.42000
O  -5.62100 29.26000 29.68400
C  -4.28200 31.35300 30.46900
C  -5.23900 32.03400 31.42500
O  -6.23700 32.64900 31.00000
O  -4.96700 31.73200 32.76000
C  -6.09800 32.02100 33.63400
H  -0.51900 37.13000 29.48800
H  -2.04400 37.20300 23.36800
H  -4.93400 31.57200 23.94000
H  -3.19000 33.89300 31.84400
H  -0.52800 34.94900 31.43900
H  -2.83400 36.13100 32.41600
H  -2.36000 36.92300 30.96100
H  -1.18900 36.74500 32.42000
H  -0.38600 32.98500 31.87000
H  -1.36700 31.74700 31.17900
H  -2.21200 31.11400 33.18900
H  -2.62300 32.76200 33.64700
H  -0.25500 40.16900 27.91900
H  1.01900 39.36100 27.27000
H  0.49900 38.75500 28.76900
H  0.66500 40.53600 25.48200
H  -0.91700 41.02300 26.06200
H  -0.46600 41.44500 24.32800
H  -2.50600 35.02500 21.78400
H  -4.81400 33.23900 22.24700
H  -4.50900 36.75000 22.47900
H  -5.42000 35.44200 21.58300
H  -4.08600 36.40600 20.88400
H  -2.24500 32.16900 22.77600
H  -2.06500 32.93000 21.21000
H  -2.75000 31.18100 20.23300
H  -4.37700 31.36900 20.85700
H  -3.03100 30.39100 21.74200
H  -5.97600 29.97600 24.96300
H  -7.01700 29.73400 26.33600
H  -5.54700 28.71900 26.24200
H  -3.48200 30.82800 30.99100
H  -6.59400 31.14900 34.05800
H  -6.86800 32.64200 33.17600
H  -5.69700 32.60500 34.46200


