%nproc=24
%mem=175gb
#p cam-b3lyp/Def2SVP td=(nstates=5)

TDDFT excited states in gaussian

0 1
Mg 44.01800 2.91800 47.66100
C  42.06000 5.71500 47.01900
C  41.00600 1.01600 47.31200
C  45.79900 0.15700 47.76200
C  46.87900 4.91700 47.24100
N  41.83200 3.33000 47.09800
C  41.29400 4.59200 46.98100
C  39.79500 4.50000 46.68300
C  39.48700 3.02600 47.06600
C  40.84700 2.38200 47.12900
C  38.69200 2.74400 48.40100
C  39.44800 4.83900 45.22400
C  38.00300 4.93400 44.91400
H  37.59500 5.76800 43.64000
N  43.49300 0.83400 47.54100
C  42.21400 0.26700 47.42800
C  42.35900 -1.16200 47.43400
C  43.77600 -1.43800 47.42700
C  44.43200 -0.09700 47.60800
C  41.15600 -2.13400 47.28600
C  44.34200 -2.85900 47.34100
O  43.62700 -3.84400 47.42200
C  45.80100 -3.04100 47.16300
N  46.06200 2.62900 47.74100
C  46.53800 1.38200 47.82400
C  48.11500 1.40300 47.69600
C  48.51000 2.91300 47.47000
C  47.02000 3.56100 47.42600
C  48.93400 0.68700 48.80200
C  49.24600 3.07700 46.12300
C  50.25900 4.22700 46.06800
N  44.47400 4.92000 47.22100
C  45.65200 5.61300 47.20700
C  45.34700 7.04400 47.09000
C  43.98000 7.11700 47.10900
C  43.47900 5.83500 47.12000
C  46.36600 8.18800 47.10600
C  42.87400 8.02300 47.02800
O  42.81600 9.22700 46.97900
C  41.57700 7.14800 46.98100
C  40.79100 7.44500 48.21000
O  41.19100 7.46200 49.34100
O  39.43700 7.57100 47.85400
C  38.52600 7.78100 48.94300
H  40.02600 0.53600 47.28500
H  46.51600 -0.66500 47.82200
H  47.74600 5.57800 47.17700
H  39.30800 5.14400 47.41400
H  38.96600 2.43700 46.31200
H  37.88000 2.08800 48.08800
H  38.53600 3.57700 49.08700
H  39.33000 2.09900 49.00500
H  39.75400 4.10000 44.48300
H  39.93900 5.76800 44.93400
H  37.52300 5.35800 45.79600
H  37.59600 3.92700 44.82400
H  41.34100 -2.41600 46.24900
H  40.16900 -1.67200 47.25600
H  41.01800 -3.02000 47.90600
H  46.05900 -2.38200 46.33400
H  45.98200 -4.06600 46.83900
H  46.21200 -2.73700 48.12600
H  48.33800 0.83400 46.79300
H  49.07900 3.37000 48.27900
H  49.32800 -0.23900 48.38200
H  48.30000 0.56800 49.68000
H  49.82500 1.27000 49.03500
H  48.45300 3.22300 45.39000
H  49.73200 2.16800 45.76800
H  51.18600 3.72000 45.79800
H  50.32400 4.81900 46.98100
H  50.02100 4.90100 45.24500
H  46.22000 8.97700 46.36900
H  47.30400 7.65100 46.96300
H  46.44100 8.50600 48.14600
H  41.03900 7.44900 46.08200
H  38.18200 8.81200 48.86000
H  38.86300 7.60600 49.96500
H  37.69400 7.09100 48.80500
Mg -9.66500 18.33400 42.78400
C  -6.24000 17.80500 42.49600
C  -9.09900 21.67600 42.05300
C  -12.91200 18.87400 42.48300
C  -10.14800 14.91400 43.00500
N  -7.91600 19.56100 42.17100
C  -6.59800 19.16200 42.25800
C  -5.63300 20.29600 42.07600
C  -6.57300 21.55800 42.31900
C  -7.95100 20.93600 42.13600
C  -6.37100 22.54100 43.56800
C  -4.81400 20.28500 40.70300
C  -5.51800 19.69700 39.44400
H  -5.27900 20.48100 38.17600
N  -10.85700 20.01500 42.21400
C  -10.42000 21.32200 41.96500
C  -11.51000 22.18000 41.58900
C  -12.66600 21.36900 41.68400
C  -12.20600 20.01400 42.11100
C  -11.29500 23.68900 41.46200
C  -14.07900 21.93000 41.40500
O  -14.25800 23.08100 40.99400
C  -15.20100 21.03000 41.71200
N  -11.24800 17.01300 42.63400
C  -12.52300 17.52900 42.79400
C  -13.59000 16.43700 43.02800
C  -12.64200 15.17100 42.94600
C  -11.28500 15.70200 42.80600
C  -14.41600 16.47100 44.27500
C  -12.97300 14.21900 41.68800
C  -13.02000 12.77100 42.10100
N  -8.45700 16.64500 42.95800
C  -8.80300 15.30900 43.04100
C  -7.58100 14.47400 43.08900
C  -6.53000 15.43300 42.87800
C  -7.12900 16.69600 42.80500
C  -7.42000 13.00900 43.03700
C  -5.08700 15.65900 42.64900
O  -4.19400 14.85200 42.53200
C  -4.84400 17.18800 42.43700
C  -3.86600 17.68600 43.40500
O  -2.75700 18.18900 43.22300
O  -4.28400 17.22800 44.68200
C  -3.45300 17.67600 45.82000
H  -8.86100 22.74200 42.07500
H  -13.99400 18.96100 42.60100
H  -10.40600 13.86400 43.15400
H  -4.85200 20.25200 42.83500
H  -6.35600 22.13700 41.42100
H  -5.49500 22.34800 44.18700
H  -7.18200 22.50000 44.29500
H  -6.14100 23.54200 43.20200
H  -3.84000 19.81700 40.84200
H  -4.55300 21.32400 40.50200
H  -6.59000 19.59400 39.61500
H  -5.14100 18.69400 39.24600
H  -11.94900 24.16700 40.73200
H  -10.29700 23.87500 41.06600
H  -11.49900 24.10000 42.45100
H  -15.27200 20.92300 42.79400
H  -15.05600 20.07500 41.20600
H  -16.08400 21.54300 41.33100
H  -14.18800 16.36800 42.11900
H  -12.69300 14.77700 43.96100
H  -14.92900 15.51000 44.31600
H  -15.20300 17.20800 44.11500
H  -13.79200 16.69500 45.14100
H  -12.21000 14.42700 40.93800
H  -13.86700 14.45400 41.10900
H  -12.15800 12.27100 41.66000
H  -13.81800 12.22200 41.60000
H  -12.89800 12.69100 43.18100
H  -8.34400 12.43000 43.00100
H  -6.93100 12.73100 43.97000
H  -6.96900 12.89900 42.05100
H  -4.46800 17.26400 41.41700
H  -4.21000 17.98200 46.54300
H  -2.74000 18.49300 45.70900
H  -3.06600 16.75200 46.25000


