%nproc=24
%mem=175gb
#p cam-b3lyp/Def2SVP td=(nstates=5) density=(transition=1)

TDDFT excited states in gaussian

0 1
Mg 29.46400 59.14500 41.03800
C  26.57800 57.38900 40.28900
C  31.34900 56.53100 39.78200
C  32.15000 61.18900 41.08600
C  27.35400 61.82000 41.94900
N  28.99200 57.29200 39.87100
C  27.77200 56.74800 39.89300
C  27.77900 55.38900 39.12700
C  29.32900 54.99700 39.21800
C  29.96700 56.34400 39.73200
C  29.58100 53.72700 40.06600
C  27.37400 55.59400 37.68500
C  26.46000 54.52700 37.10300
H  26.57800 54.02100 35.61600
N  31.53300 58.78800 40.65000
C  32.11000 57.71400 40.08400
C  33.51500 57.95800 40.03300
C  33.80600 59.24700 40.57400
C  32.47900 59.81600 40.84000
C  34.47700 56.89100 39.66100
C  35.16200 59.85800 40.59300
O  36.13000 59.21400 40.22400
C  35.39700 61.26400 41.13200
N  29.71300 61.28200 41.56500
C  30.94400 61.84600 41.41400
C  30.85900 63.33400 41.52000
C  29.29200 63.52200 41.79300
C  28.69900 62.13600 41.84900
C  31.79900 63.96200 42.56600
C  28.51800 64.48000 40.78300
C  27.64200 65.63900 41.31400
N  27.43700 59.54700 41.14000
C  26.74400 60.62700 41.58900
C  25.41200 60.28000 41.81900
C  25.25400 58.98400 41.34800
C  26.48900 58.61100 40.88000
C  24.32700 61.25500 42.36300
C  24.37200 57.92800 41.16800
O  23.15900 57.91800 41.34600
C  25.14900 56.75500 40.39700
C  25.25800 55.58200 41.18700
O  25.99300 55.31600 42.14100
O  24.33400 54.68200 40.66500
C  24.17500 53.35900 41.24400
H  31.95200 55.65500 39.53500
H  32.91900 61.96200 41.15300
H  26.80500 62.68200 42.33400
H  27.08300 54.71900 39.63100
H  29.81700 54.88800 38.25000
H  28.66900 53.37400 40.54700
H  30.34000 53.93800 40.82000
H  30.00600 52.97200 39.40500
H  28.16800 55.74800 36.95400
H  26.92700 56.58800 37.67000
H  25.44000 54.85100 37.30900
H  26.66400 53.69100 37.77200
H  34.81300 56.52500 40.63100
H  35.29700 57.28300 39.05900
H  34.02200 56.08300 39.08800
H  35.10600 61.93900 40.32700
H  36.47900 61.37300 41.20200
H  34.84400 61.42100 42.05800
H  31.14300 63.61000 40.50500
H  29.10900 64.04800 42.73000
H  32.59600 64.44300 41.99800
H  32.19100 63.23400 43.27700
H  31.26900 64.75100 43.09900
H  27.85100 63.86700 40.17700
H  29.18800 65.01800 40.11200
H  26.69000 65.11600 41.40400
H  27.54400 66.41700 40.55800
H  27.77900 66.00900 42.33000
H  24.06200 61.95200 41.56900
H  24.63400 61.90700 43.18100
H  23.42900 60.71200 42.65900
H  24.61600 56.61800 39.45600
H  23.13300 53.07400 41.10200
H  24.52900 53.25500 42.27000
H  24.72400 52.65900 40.61400
Mg 16.41100 52.36700 25.56600
C  18.01800 50.88800 28.30000
C  13.92400 53.47100 27.63400
C  14.78500 53.43800 22.89200
C  18.97700 50.98900 23.49400
N  16.01700 52.13900 27.73500
C  16.81400 51.56600 28.70100
C  16.31600 51.93200 30.08700
C  14.87100 52.50500 29.80500
C  15.00600 52.79900 28.27200
C  13.75200 51.51700 30.10900
C  17.38000 52.82700 30.82100
C  16.86600 53.42500 32.16000
H  15.83800 52.61100 32.91800
N  14.67300 53.30500 25.31300
C  13.70900 53.59600 26.27000
C  12.51400 54.21500 25.67000
C  12.80900 54.23100 24.27200
C  14.13200 53.63200 24.11700
C  11.36800 54.71200 26.46900
C  11.91000 54.75300 23.18100
O  12.26900 54.77100 21.97100
C  10.56700 55.35400 23.49600
N  16.86500 52.27500 23.47100
C  15.99700 52.81000 22.61200
C  16.44300 52.50800 21.11400
C  17.81800 51.65600 21.31000
C  17.89300 51.61900 22.83700
C  15.27500 51.72000 20.39100
C  19.11700 52.36100 20.72800
C  19.40800 52.10700 19.22100
N  18.08500 51.15100 25.76500
C  19.11600 50.75400 24.87300
C  20.19800 50.00100 25.64600
C  19.78200 49.96200 26.97300
C  18.52400 50.75100 27.00100
C  21.48500 49.44800 25.11900
C  20.10700 49.55500 28.32000
O  21.06000 48.92400 28.78800
C  19.05800 50.30100 29.28500
C  18.45300 49.37700 30.31700
O  17.48000 48.69900 30.12500
O  19.02600 49.59100 31.59100
C  18.26600 49.12100 32.75900
H  13.19300 53.70900 28.41000
H  14.23600 53.78000 22.01200
H  19.73200 50.45400 22.91400
H  16.24800 51.01000 30.66300
H  14.63800 53.45400 30.28900
H  13.10300 52.02100 30.82500
H  14.20000 50.58000 30.43900
H  13.06200 51.39100 29.27500
H  17.73700 53.44800 30.00000
H  18.21600 52.16100 31.03200
H  16.46200 54.39100 31.85700
H  17.72400 53.56200 32.81800
H  10.55700 54.06200 26.14100
H  11.17100 55.77400 26.32500
H  11.38200 54.60100 27.55400
H  10.71400 56.25300 24.09300
H  10.12800 54.49800 24.01000
H  9.92000 55.56900 22.64600
H  16.62800 53.52500 20.76600
H  17.77900 50.58400 21.11200
H  14.41400 51.50600 21.02400
H  15.64500 50.76000 20.03000
H  14.90700 52.39400 19.61800
H  19.98300 52.23400 21.37700
H  18.92400 53.43100 20.79800
H  19.48300 53.08600 18.74900
H  18.62700 51.45900 18.82300
H  20.36100 51.60000 19.06800
H  22.27100 50.10500 25.49200
H  21.46400 49.41600 24.02900
H  21.78400 48.45300 25.44800
H  19.61000 51.11500 29.75400
H  18.44700 48.04700 32.79300
H  17.22900 49.45300 32.70500
H  18.68800 49.63700 33.62100


