%nproc=24
%mem=175gb
#p cam-b3lyp/Def2SVP td=(nstates=5)

TDDFT excited states in gaussian

0 1
Mg 17.10100 -2.07700 27.77000
C  16.45500 -0.19100 30.58100
C  19.23600 -3.94700 29.68100
C  17.96100 -3.74600 24.96300
C  15.37700 0.23000 25.82200
N  17.83400 -1.91300 29.91400
C  17.31200 -1.24300 30.86800
C  17.86400 -1.55200 32.35400
C  18.99500 -2.58100 31.95700
C  18.76000 -2.80300 30.38800
C  20.50900 -2.04800 32.15900
C  16.79200 -2.13400 33.37400
C  16.96200 -1.78000 34.89400
H  18.25700 -1.14000 35.29400
N  18.31900 -3.63600 27.38700
C  19.10500 -4.38300 28.35000
C  19.74900 -5.47800 27.63200
C  19.48000 -5.36700 26.24500
C  18.51900 -4.24500 26.14900
C  20.50800 -6.46400 28.44500
C  19.91900 -6.24400 25.04900
O  19.71600 -6.00400 23.89600
C  20.84100 -7.42500 25.41400
N  16.84100 -1.78700 25.63700
C  17.26600 -2.56700 24.69400
C  17.04700 -1.94200 23.28700
C  16.12300 -0.73100 23.56000
C  16.07300 -0.74300 25.10600
C  18.39300 -1.56900 22.63000
C  14.74200 -0.86000 22.84700
C  14.78100 -0.68700 21.32000
N  16.09100 -0.30700 28.09200
C  15.35600 0.45700 27.20300
C  14.73300 1.49900 27.97600
C  15.14100 1.35600 29.33600
C  15.94900 0.18700 29.29900
C  13.91400 2.52600 27.44500
C  15.02300 1.80700 30.68600
O  14.43000 2.83800 31.12300
C  15.98100 0.86900 31.51800
C  16.98700 1.71200 32.12800
O  17.99700 2.11700 31.55300
O  16.51500 2.07400 33.36400
C  17.31500 3.14200 34.00000
H  19.94300 -4.54500 30.25900
H  18.26400 -4.34800 24.10300
H  14.78900 0.88500 25.17500
H  18.31000 -0.60500 32.65900
H  18.90200 -3.48800 32.55400
H  20.47800 -0.95900 32.20400
H  21.12500 -2.36600 31.31800
H  21.03200 -2.40200 33.04800
H  16.90400 -3.21300 33.27100
H  15.74800 -2.07700 33.06400
H  16.83100 -2.63200 35.56100
H  16.22600 -1.02300 35.16500
H  21.52400 -6.11200 28.62600
H  20.42400 -7.48300 28.06700
H  20.00400 -6.52900 29.40900
H  20.33800 -8.26100 25.90100
H  21.56700 -6.93500 26.06200
H  21.42700 -7.84100 24.59500
H  16.51200 -2.73300 22.76200
H  16.63000 0.18800 23.26600
H  19.22100 -1.38900 23.31600
H  18.44300 -0.64500 22.05300
H  18.63700 -2.41000 21.98100
H  14.08400 -0.07400 23.21500
H  14.28900 -1.82100 23.09300
H  15.82700 -0.60000 21.02600
H  14.42000 0.31100 21.07100
H  14.22200 -1.38300 20.69500
H  13.25200 2.01200 26.74800
H  14.42200 3.30300 26.87400
H  13.44500 3.05700 28.27400
H  15.32300 0.48100 32.29600
H  17.17000 4.03200 33.38700
H  18.34600 2.83300 34.16900
H  16.87700 3.33200 34.98000
Mg -9.26600 18.27700 42.96500
C  -5.81100 17.58000 42.98100
C  -8.47400 21.42900 42.13900
C  -12.47500 18.67000 42.48700
C  -9.75200 14.74100 43.14100
N  -7.34400 19.34600 42.56200
C  -6.06200 18.93000 42.69300
C  -5.04000 20.02200 42.45000
C  -5.98500 21.29000 42.45900
C  -7.37700 20.70000 42.36700
C  -5.82600 22.23200 43.72300
C  -4.08200 20.00700 41.18000
C  -4.36600 19.09100 39.96000
H  -3.96500 19.61900 38.53200
N  -10.31800 19.93500 42.50700
C  -9.83700 21.10100 42.09700
C  -10.97100 21.97200 41.68400
C  -12.19800 21.17200 41.95900
C  -11.67600 19.85500 42.32500
C  -10.82500 23.41900 41.29700
C  -13.61600 21.63300 41.74500
O  -13.81100 22.79100 41.38400
C  -14.89900 20.73300 41.88300
N  -10.94800 16.84400 42.71500
C  -12.12100 17.37600 42.70200
C  -13.18200 16.19300 42.82000
C  -12.25700 14.97500 42.77500
C  -10.85500 15.54600 42.86600
C  -14.16200 16.18100 44.00500
C  -12.30000 14.18000 41.36900
C  -12.88700 12.75700 41.40300
N  -8.10600 16.49700 42.98200
C  -8.41600 15.17700 43.17700
C  -7.19300 14.39200 43.48700
C  -6.09500 15.27800 43.29700
C  -6.75800 16.56600 43.10100
C  -7.09800 12.86900 43.72900
C  -4.68100 15.45100 43.26700
O  -3.71100 14.67400 43.28400
C  -4.42500 16.97400 43.13600
C  -3.61000 17.39300 44.36300
O  -2.45500 17.69200 44.51200
O  -4.50700 17.60300 45.41600
C  -3.95600 18.13500 46.70100
H  -8.18700 22.44600 41.86300
H  -13.54300 18.86100 42.35700
H  -9.93500 13.71100 43.45300
H  -4.44700 20.04900 43.36400
H  -5.75600 21.91400 41.59500
H  -5.11000 21.81600 44.43100
H  -6.79600 22.11100 44.20400
H  -5.58800 23.24500 43.39800
H  -3.08000 19.78600 41.54800
H  -3.99700 21.02300 40.79300
H  -5.44200 18.91700 39.97000
H  -3.77000 18.17900 39.94600
H  -11.77100 23.96000 41.28900
H  -10.25700 23.43000 40.36600
H  -10.11700 23.80900 42.02900
H  -15.08400 20.15000 42.78600
H  -14.85100 19.96100 41.11500
H  -15.81700 21.30800 41.76500
H  -13.87700 16.19700 41.98100
H  -12.39400 14.18200 43.51100
H  -14.02600 17.04700 44.65300
H  -14.09900 15.25100 44.57100
H  -15.20700 16.25900 43.70500
H  -11.30400 14.05300 40.94700
H  -12.88100 14.81200 40.69700
H  -12.44900 12.05100 40.69700
H  -13.92900 12.87300 41.10500
H  -12.71100 12.44000 42.43100
H  -7.98800 12.30200 43.45800
H  -6.94100 12.78400 44.80400
H  -6.18900 12.50600 43.25000
H  -3.84800 17.16600 42.23200
H  -2.93200 17.88100 46.97400
H  -4.58000 17.65400 47.45400
H  -4.05900 19.20000 46.91000


