%nproc=24
%mem=175gb
#p cam-b3lyp/Def2SVP td=(nstates=5) density=(transition=1)

TDDFT excited states in gaussian

0 1
Mg 44.80500 2.87200 46.67800
C  42.56400 5.57100 46.81800
C  42.13800 0.79200 46.35700
C  47.01300 0.52400 46.12300
C  47.34200 5.37800 46.17800
N  42.64100 3.17100 46.66900
C  41.94200 4.34400 46.71700
C  40.48300 4.04900 46.33800
C  40.34000 2.59000 46.75700
C  41.78900 2.14300 46.48400
C  39.96100 2.42600 48.24700
C  40.23600 4.25700 44.79800
C  39.26900 5.45400 44.33400
H  39.83900 6.57400 43.44700
N  44.60700 0.93700 46.23600
C  43.41900 0.24600 46.16900
C  43.72000 -1.14400 46.02500
C  45.14200 -1.32500 46.06900
C  45.67600 0.06600 46.14000
C  42.62100 -2.25300 45.89000
C  45.87200 -2.71700 46.06400
O  45.23700 -3.72500 46.11700
C  47.31400 -2.74100 46.27700
N  46.83800 2.95400 45.90000
C  47.54500 1.82700 46.15300
C  49.01900 2.09000 46.41200
C  49.17500 3.56200 46.06200
C  47.67600 4.02200 46.03300
C  49.44600 1.78300 47.89500
C  49.96600 3.97900 44.73400
C  51.33300 4.60700 44.78400
N  45.00300 4.99200 46.72600
C  46.07700 5.86500 46.51000
C  45.65700 7.24900 46.55200
C  44.29400 7.16900 46.69900
C  43.89900 5.79300 46.77900
C  46.53700 8.41600 46.37700
C  43.08200 7.96600 46.81100
O  42.95000 9.19400 46.88400
C  41.94500 6.98400 47.00000
C  41.32800 7.26400 48.36600
O  42.00600 7.20100 49.38900
O  40.00100 7.70700 48.25300
C  39.36700 8.02300 49.50500
H  41.26200 0.14300 46.41400
H  47.71200 -0.30200 46.26300
H  48.13300 6.13000 46.13700
H  39.87300 4.80700 46.83000
H  39.59400 2.12600 46.11300
H  39.12500 1.73800 48.12600
H  39.66800 3.42600 48.56800
H  40.73100 2.03300 48.91100
H  39.76200 3.35000 44.42300
H  41.21000 4.30800 44.31200
H  38.98200 5.96200 45.25500
H  38.33700 5.13200 43.87100
H  42.71600 -2.97100 45.07600
H  41.68000 -1.71700 45.76200
H  42.51800 -2.85500 46.79300
H  47.88700 -2.17400 45.54300
H  47.64600 -3.77900 46.25800
H  47.54400 -2.49600 47.31300
H  49.67000 1.44400 45.82200
H  49.62700 4.10200 46.89400
H  49.91800 0.80800 48.01500
H  48.60400 1.96800 48.56200
H  50.20200 2.52100 48.16700
H  49.41200 4.48800 43.94600
H  50.09500 2.95900 44.37100
H  52.11800 3.97300 44.37300
H  51.60000 4.81700 45.82000
H  51.22600 5.52900 44.21300
H  47.39900 8.09600 45.79100
H  46.88900 8.66700 47.37800
H  45.99500 9.26600 45.96500
H  41.25100 7.27600 46.21300
H  39.04600 7.15600 50.08300
H  38.48400 8.64500 49.36100
H  39.98200 8.61300 50.18400
Mg 35.71600 1.25500 29.88400
C  33.26000 2.26900 32.06200
C  37.97500 1.18400 32.63200
C  38.34600 0.78200 27.81300
C  33.67000 1.64600 27.25500
N  35.61600 1.68700 32.10200
C  34.47500 2.10300 32.73400
C  34.68900 2.20300 34.24600
C  36.27600 2.03500 34.33300
C  36.65900 1.61200 32.94500
C  37.02900 3.30200 34.88200
C  33.91200 1.08400 35.07900
C  33.16700 1.39000 36.35600
H  33.84300 2.22100 37.38800
N  37.88700 0.95800 30.15700
C  38.55000 0.78800 31.32200
C  39.89100 0.36100 31.10100
C  40.02700 0.20000 29.68600
C  38.73000 0.72700 29.16600
C  40.80200 0.22400 32.27800
C  41.26400 -0.16900 28.88500
O  41.33400 -0.00500 27.66300
C  42.48400 -0.74400 29.58300
N  36.02000 1.36700 27.77900
C  37.17800 1.00100 27.16900
C  36.98100 0.89100 25.65800
C  35.41500 1.00100 25.51900
C  34.99600 1.35200 26.93300
C  37.78500 1.78800 24.67100
C  34.66500 -0.24600 24.88900
C  34.10400 -1.33400 25.78000
N  33.89900 1.92200 29.64700
C  33.07800 1.91600 28.54800
C  31.77800 2.41500 28.81300
C  31.77700 2.52500 30.20000
C  33.07800 2.19300 30.65800
C  30.56200 2.67700 27.93400
C  31.02900 2.87500 31.32700
O  29.88700 3.29400 31.37200
C  31.95500 2.75800 32.66400
C  32.02000 4.07800 33.27900
O  32.54800 5.09200 32.78100
O  31.38700 4.14700 34.48000
C  31.10000 5.46600 35.05500
H  38.54900 1.11500 33.55800
H  39.09900 0.35600 27.14700
H  32.90400 1.43100 26.50800
H  34.28100 3.15500 34.58800
H  36.55500 1.25900 35.04600
H  37.56800 3.00200 35.78000
H  36.24700 4.05100 35.00800
H  37.83800 3.67300 34.25200
H  34.72200 0.38900 35.30100
H  33.30700 0.45900 34.42300
H  32.77000 0.47000 36.78500
H  32.33500 2.02700 36.05800
H  41.31400 -0.72500 32.12300
H  40.23000 0.11700 33.20000
H  41.52900 1.02400 32.42200
H  42.25000 -1.48700 30.34600
H  43.15800 0.06500 29.86800
H  42.99900 -1.30000 28.79900
H  37.38700 -0.09500 25.43100
H  35.10800 1.75000 24.79000
H  37.12800 2.52600 24.21100
H  38.16400 1.12200 23.89600
H  38.57800 2.24100 25.26500
H  35.37100 -0.71500 24.20500
H  33.81300 0.09600 24.30100
H  34.44300 -2.32400 25.47400
H  33.01400 -1.34700 25.82000
H  34.48200 -1.09900 26.77500
H  30.79100 2.37600 26.91100
H  30.30400 3.73500 27.98700
H  29.72700 2.09100 28.31700
H  31.32600 2.10900 33.27400
H  30.27200 5.47100 35.76400
H  31.01600 6.28300 34.33900
H  31.93600 5.66400 35.72600


