%nproc=24
%mem=175gb
#p cam-b3lyp/Def2SVP td=(nstates=5)

TDDFT excited states in gaussian

0 1
Mg 24.36900 -6.98700 46.60800
C  26.68400 -4.76900 45.35200
C  21.90100 -5.12400 45.15800
C  22.46500 -9.68400 46.72500
C  27.03400 -8.80400 47.99500
N  24.41600 -5.40800 45.00500
C  25.43000 -4.51800 44.85100
C  25.02900 -3.31400 44.05100
C  23.50400 -3.26400 44.39000
C  23.25600 -4.65400 44.95700
C  23.12700 -2.08400 45.33100
C  25.27600 -3.52100 42.47300
C  25.72300 -2.21200 41.67100
H  24.68300 -1.93800 40.61300
N  22.38400 -7.27700 46.19700
C  21.52700 -6.46900 45.53500
C  20.22900 -7.11300 45.37800
C  20.37200 -8.43000 45.86100
C  21.79800 -8.50600 46.28600
C  19.04300 -6.37400 44.71200
C  19.31200 -9.48200 45.68900
O  18.25700 -9.18500 45.19200
C  19.48300 -10.96700 46.06200
N  24.62900 -8.97800 47.39100
C  23.73100 -9.85500 47.30000
C  24.17900 -11.20600 47.72000
C  25.67400 -10.94700 48.15800
C  25.81200 -9.52100 47.84300
C  23.22200 -11.82700 48.79300
C  26.70500 -11.85900 47.34500
C  28.13900 -12.05100 47.95500
N  26.42100 -6.83200 46.76500
C  27.35000 -7.59400 47.45000
C  28.63900 -6.96000 47.42800
C  28.41400 -5.78200 46.63300
C  27.10800 -5.81900 46.18400
C  29.90100 -7.42400 48.08100
C  29.04200 -4.60800 46.13300
O  30.18200 -4.13000 46.19600
C  28.00800 -4.00400 45.12600
C  27.97900 -2.53300 45.37600
O  28.65400 -1.69700 44.75900
O  27.14200 -2.25800 46.42200
C  27.16400 -0.79200 46.68700
H  21.02900 -4.53900 44.85700
H  21.83100 -10.57200 46.69600
H  27.87200 -9.43200 48.30700
H  25.56100 -2.49300 44.53000
H  22.94300 -3.07800 43.47400
H  22.46400 -1.40000 44.80200
H  24.04300 -1.52500 45.52500
H  22.72200 -2.51300 46.24700
H  24.47600 -4.01300 41.92000
H  26.07600 -4.24200 42.30800
H  26.63900 -2.51400 41.16300
H  25.99300 -1.30800 42.21700
H  18.63800 -6.86100 43.82500
H  19.24900 -5.33100 44.46900
H  18.26300 -6.29000 45.46800
H  19.62500 -11.12900 47.13000
H  20.27800 -11.46900 45.51000
H  18.60200 -11.45500 45.64400
H  24.15900 -11.77400 46.79000
H  25.92100 -11.00100 49.21800
H  22.84600 -12.76100 48.37600
H  22.40400 -11.15300 49.04800
H  23.73300 -12.22400 49.67000
H  26.84400 -11.46000 46.34000
H  26.21500 -12.82700 47.25100
H  28.51200 -13.04100 48.21600
H  28.22300 -11.52500 48.90500
H  28.89100 -11.63100 47.28700
H  29.81500 -8.26400 48.77000
H  30.19100 -6.49700 48.57400
H  30.52400 -7.56700 47.19800
H  28.23100 -4.20700 44.07800
H  28.13300 -0.51500 47.10100
H  26.50700 -0.50200 47.50700
H  26.90400 -0.28600 45.75700
Mg 29.51000 58.90800 41.21400
C  26.38900 57.48600 40.17300
C  31.07800 56.05600 39.82600
C  32.44700 60.51200 41.46200
C  27.84100 61.85400 41.88400
N  28.82700 56.95900 40.12100
C  27.51800 56.70000 39.82500
C  27.43600 55.53200 38.85500
C  28.91100 54.97600 39.03000
C  29.71500 56.02800 39.69400
C  29.08100 53.62400 39.80100
C  26.96300 56.03100 37.45200
C  25.85600 55.22200 36.65900
H  26.19700 54.60200 35.29200
N  31.43900 58.34900 40.91600
C  31.91100 57.13400 40.35300
C  33.36200 57.11100 40.33800
C  33.74700 58.43000 40.81400
C  32.51100 59.13800 41.09000
C  34.11400 55.98100 39.76900
C  35.21500 58.86100 40.97700
O  36.08800 58.03800 40.57400
C  35.69500 60.19600 41.58500
N  30.14600 61.00100 41.36300
C  31.38600 61.37000 41.62100
C  31.40400 62.84700 41.84900
C  29.90900 63.22000 42.03600
C  29.21400 61.95000 41.65200
C  32.31600 63.46200 42.99500
C  29.40100 64.48800 41.17400
C  28.93400 65.75600 41.93000
N  27.56300 59.51200 41.26600
C  27.03200 60.71300 41.55100
C  25.61900 60.69600 41.44600
C  25.33000 59.42300 40.94900
C  26.56000 58.73200 40.80800
C  24.61100 61.72700 41.76100
C  24.21900 58.63400 40.51400
O  23.05400 58.95300 40.43300
C  24.92200 57.26000 39.91000
C  24.42400 56.08500 40.63500
O  24.27500 56.00600 41.86100
O  24.19400 55.10700 39.69100
C  23.68300 53.83100 40.18900
H  31.62000 55.20100 39.41900
H  33.35900 61.11200 41.46000
H  27.25300 62.67600 42.29800
H  26.78700 54.79200 39.32400
H  29.19500 54.98000 37.97700
H  29.75800 53.81000 40.63600
H  29.53300 52.82700 39.21100
H  28.17800 53.23200 40.27000
H  27.91200 55.97700 36.91900
H  26.65200 57.07400 37.39700
H  25.02500 55.92000 36.55900
H  25.42300 54.48900 37.33900
H  33.71100 55.81900 38.76900
H  33.89700 55.07100 40.32800
H  35.20300 56.02600 39.79800
H  35.47200 60.98900 40.87100
H  36.68900 59.96900 41.96900
H  35.05300 60.30300 42.46000
H  31.80800 63.29500 40.94200
H  29.82800 63.26800 43.12200
H  32.55800 64.46300 42.63700
H  33.18900 62.82200 43.12200
H  31.69200 63.52000 43.88700
H  28.59500 64.07600 40.56700
H  30.17400 64.71200 40.43900
H  27.96900 66.12300 41.58300
H  29.69100 66.53100 41.80700
H  28.89100 65.63000 43.01200
H  23.61700 61.29700 41.88000
H  24.71500 62.31200 40.84700
H  25.04500 62.40800 42.49300
H  24.83500 57.21500 38.82500
H  22.80800 53.96700 40.82500
H  24.47100 53.30400 40.72900
H  23.37200 53.22500 39.33800


