%nproc=24
%mem=175gb
#p cam-b3lyp/Def2SVP td=(nstates=5)

TDDFT excited states in gaussian

0 1
Mg 1.39700 7.67200 26.33400
C  1.72400 9.74100 29.05100
C  2.01300 4.99100 28.38100
C  1.18200 5.57500 23.58000
C  1.22200 10.43500 24.24700
N  1.88100 7.36900 28.50400
C  1.86000 8.39700 29.40300
C  2.08800 7.91400 30.75300
C  2.40000 6.43300 30.60700
C  2.12200 6.20500 29.05700
C  3.81300 5.91300 31.04400
C  0.86900 8.21500 31.69000
C  1.18400 8.50600 33.19800
H  2.44800 7.85400 33.79200
N  1.46600 5.54900 26.07500
C  1.71900 4.62900 27.07800
C  1.70700 3.27200 26.49500
C  1.45400 3.42700 25.06400
C  1.33100 4.87900 24.84700
C  1.96100 1.99300 27.27600
C  1.22600 2.33500 24.04500
O  0.94200 2.65000 22.87600
C  1.34900 0.88300 24.32000
N  1.30400 7.94800 24.20100
C  1.17000 6.94200 23.33200
C  0.89900 7.47700 21.91600
C  0.64800 9.06900 22.12400
C  1.00600 9.14600 23.65000
C  2.06300 7.12000 20.94100
C  -0.80600 9.55500 21.87400
C  -1.00500 10.45600 20.64600
N  1.52400 9.70800 26.54100
C  1.45100 10.73400 25.59600
C  1.56500 12.05000 26.26300
C  1.69000 11.65900 27.61700
C  1.66900 10.24300 27.72900
C  1.49300 13.37100 25.67200
C  1.73800 12.19000 28.99500
O  1.68200 13.31300 29.42100
C  1.80500 10.95700 29.96500
C  2.97400 11.12000 30.84400
O  4.12200 10.98100 30.39200
O  2.68100 11.28600 32.16300
C  3.77100 11.25200 33.13300
H  2.21100 4.15900 29.06000
H  1.15400 4.90100 22.72100
H  1.03400 11.27000 23.56900
H  2.96600 8.42700 31.14700
H  1.62000 5.81700 31.05600
H  4.56300 6.57700 31.47500
H  4.27400 5.43500 30.18000
H  3.77100 5.07400 31.73900
H  0.12500 7.42500 31.58700
H  0.27300 9.01100 31.24400
H  0.33700 8.21300 33.81900
H  1.41300 9.55400 33.38900
H  2.02800 2.15000 28.35200
H  2.91300 1.54300 26.99300
H  1.08700 1.34400 27.22400
H  1.03600 0.37200 23.41000
H  0.74800 0.54700 25.16600
H  2.36800 0.65900 24.63600
H  -0.06900 7.08000 21.61000
H  1.35900 9.68000 21.56800
H  1.72500 6.67300 20.00600
H  2.74700 6.40500 21.39900
H  2.59200 8.06400 20.80800
H  -1.22600 10.10700 22.71400
H  -1.49800 8.72100 21.75500
H  -0.24900 10.22000 19.89700
H  -0.86300 11.48900 20.96200
H  -2.04500 10.34200 20.34300
H  1.26400 14.14800 26.40100
H  0.76200 13.44400 24.86700
H  2.50500 13.65900 25.38700
H  0.85200 11.05500 30.48600
H  4.47400 12.08100 33.04700
H  4.27000 10.28300 33.12600
H  3.36500 11.36600 34.13800
Mg 26.06500 50.95300 26.70600
C  23.95100 52.21500 29.08800
C  28.12100 49.83900 29.10000
C  28.15700 49.98600 24.24600
C  24.06600 52.63600 24.17800
N  26.14100 51.27800 28.89700
C  25.13500 51.71000 29.66700
C  25.49500 51.52800 31.23000
C  26.85400 50.74300 31.10400
C  27.11600 50.62500 29.58900
C  28.00100 51.35300 31.93300
C  24.40800 50.76600 32.04000
C  24.78700 50.21400 33.45300
H  24.26800 51.00700 34.71200
N  27.93000 50.07200 26.68200
C  28.56100 49.60000 27.73700
C  29.78100 48.94300 27.29300
C  29.90300 49.05100 25.87500
C  28.62800 49.72200 25.53900
C  30.86100 48.38000 28.20200
C  31.03700 48.64600 24.93900
O  31.09500 49.07700 23.79100
C  32.08400 47.71600 25.44400
N  26.12000 51.31300 24.51700
C  27.05500 50.76500 23.75000
C  26.75200 50.94300 22.25300
C  25.36900 51.58600 22.31600
C  25.20000 51.88900 23.75800
C  27.77300 51.70600 21.39600
C  24.29900 50.82000 21.58000
C  23.63800 51.55200 20.35800
N  24.37700 52.10200 26.60600
C  23.61600 52.65500 25.52200
C  22.39000 53.25700 25.99800
C  22.52400 53.06300 27.40100
C  23.71600 52.38900 27.69500
C  21.20200 53.78500 25.27400
C  21.72000 53.18300 28.59100
O  20.53300 53.46900 28.80800
C  22.59000 52.78500 29.75700
C  22.95900 54.06000 30.54700
O  23.29600 55.16300 30.09000
O  22.85900 53.76400 31.87400
C  23.13500 54.86100 32.85500
H  28.80700 49.32300 29.77500
H  28.85800 49.89200 23.41400
H  23.44600 52.99600 23.35500
H  25.65400 52.54800 31.57800
H  26.67500 49.72400 31.44700
H  28.52200 50.52300 32.40900
H  27.63000 51.99000 32.73600
H  28.68100 51.92100 31.29800
H  24.23600 49.84500 31.48300
H  23.53400 51.40200 32.18000
H  25.86900 50.31100 33.54800
H  24.40200 49.19900 33.54500
H  30.59600 48.49500 29.25300
H  31.79900 48.90500 28.02300
H  31.04200 47.32300 28.01100
H  31.53500 46.89000 25.89700
H  32.83600 48.00900 26.17600
H  32.72300 47.32900 24.65100
H  26.66800 49.94900 21.81500
H  25.43600 52.54200 21.79700
H  27.79000 51.15500 20.45600
H  28.73100 51.77600 21.91100
H  27.54500 52.76300 21.25900
H  23.50000 50.72800 22.31500
H  24.63300 49.85300 21.20500
H  24.06100 52.55100 20.24900
H  22.57600 51.65700 20.58200
H  23.65600 51.00200 19.41700
H  21.27300 53.54700 24.21300
H  21.29800 54.86900 25.32400
H  20.34800 53.31100 25.76000
H  21.96100 52.11200 30.34000
H  24.03500 55.44400 32.65800
H  23.15200 54.54000 33.89600
H  22.32000 55.57300 32.72600


