%nproc=24
%mem=175gb
#p cam-b3lyp/Def2SVP td=(nstates=5) density=(transition=1)

TDDFT excited states in gaussian

0 1
Mg 47.67100 15.89000 28.45400
C  45.34400 15.65500 31.04800
C  49.48000 18.07500 30.51500
C  49.68700 16.65900 25.89600
C  45.30600 14.62100 26.30000
N  47.50700 16.71700 30.64000
C  46.40900 16.47700 31.40500
C  46.52000 17.23500 32.78700
C  47.75800 18.22000 32.48000
C  48.27100 17.69900 31.12700
C  47.16600 19.65600 32.25100
C  46.90400 16.16800 33.87700
C  47.20400 16.68600 35.31000
H  48.31600 16.29900 36.23900
N  49.43000 17.01400 28.32000
C  50.06900 17.82700 29.27100
C  51.20000 18.39100 28.66300
C  51.38300 17.85100 27.39700
C  50.14500 17.12800 27.15700
C  52.11500 19.27100 29.45000
C  52.51500 18.07600 26.34100
O  52.57400 17.52300 25.24800
C  53.78800 18.86100 26.66900
N  47.44200 15.76700 26.39600
C  48.48400 16.01700 25.57200
C  48.26000 15.53000 24.12700
C  46.80100 15.00400 24.22400
C  46.51000 15.00800 25.71400
C  48.61100 16.58300 23.02400
C  46.48600 13.65000 23.53100
C  46.96600 12.43800 24.21000
N  45.75600 15.16700 28.59900
C  44.93800 14.69700 27.68600
C  43.69800 14.18000 28.27400
C  43.86300 14.56100 29.64400
C  45.08900 15.18100 29.78600
C  42.77800 13.18000 27.74800
C  43.21100 14.49100 30.94000
O  42.19200 13.93500 31.28200
C  44.14500 15.27600 31.86900
C  43.41900 16.43800 32.55500
O  43.17000 17.49000 32.02600
O  43.04200 16.05500 33.82000
C  42.33900 17.13300 34.55300
H  50.09800 18.64700 31.20900
H  50.41400 16.70200 25.08200
H  44.81200 14.14000 25.45400
H  45.63400 17.83000 33.01000
H  48.52200 18.24600 33.25800
H  47.13800 20.01300 31.22200
H  47.84000 20.42900 32.62100
H  46.16600 19.79300 32.66200
H  47.75800 15.61000 33.49400
H  46.09800 15.43400 33.89800
H  46.24800 16.58700 35.82500
H  47.42100 17.73200 35.09700
H  51.80300 19.48300 30.47300
H  52.34700 20.14300 28.83700
H  53.02500 18.67700 29.53900
H  53.61800 19.92500 26.83400
H  54.61200 18.70300 25.97300
H  54.19200 18.41700 27.57900
H  49.00300 14.73300 24.13500
H  46.20400 15.80500 23.78800
H  49.40000 17.25400 23.36200
H  47.72600 17.18100 22.80500
H  48.98600 16.12600 22.10800
H  46.99700 13.77600 22.57700
H  45.42300 13.59700 23.29500
H  46.25100 12.14600 24.97900
H  47.97200 12.58100 24.60400
H  46.98800 11.57800 23.54000
H  43.37600 12.59600 27.04800
H  41.93300 13.49000 27.13300
H  42.41600 12.61300 28.60500
H  44.52600 14.58100 32.61800
H  41.57800 16.67700 35.18600
H  41.70900 17.79000 33.95300
H  43.02300 17.66800 35.21100
Mg 35.49600 50.25400 25.27000
C  35.17700 48.23300 28.13300
C  33.95100 52.80200 27.06200
C  35.52400 52.00900 22.45100
C  36.25500 47.31600 23.35100
N  34.65000 50.47900 27.32000
C  34.75900 49.53200 28.34800
C  34.55800 50.22300 29.68400
C  33.90100 51.58900 29.33600
C  34.18900 51.63300 27.80500
C  32.41200 51.77300 29.76700
C  35.85100 50.33500 30.56400
C  35.57700 50.30300 32.13200
H  34.12200 50.22500 32.60200
N  34.96300 52.12400 24.87400
C  34.41800 53.04500 25.75200
C  34.29200 54.33000 25.12700
C  34.61900 54.10800 23.75100
C  35.08400 52.73500 23.66700
C  33.72300 55.59000 25.84800
C  34.52600 55.05800 22.60200
O  34.69900 54.67600 21.42000
C  34.14200 56.56700 22.60300
N  35.57000 49.71100 23.15300
C  35.66800 50.65100 22.19400
C  36.16600 50.02300 20.86800
C  36.37900 48.52900 21.13700
C  36.08600 48.52400 22.70200
C  35.30200 50.41100 19.70700
C  37.75400 47.93500 20.76300
C  38.97000 48.58500 21.46800
N  35.63500 48.14500 25.59300
C  36.09300 47.16800 24.77600
C  36.32500 45.99400 25.61600
C  36.01700 46.32200 26.96600
C  35.54300 47.65500 26.90400
C  36.93800 44.67500 25.15300
C  35.96700 45.83900 28.30900
O  36.34100 44.80600 28.85800
C  35.32300 47.11200 29.16700
C  34.10500 46.63100 29.93300
O  33.00700 46.49100 29.43100
O  34.39500 46.48000 31.27000
C  33.50200 45.67800 32.10000
H  33.57900 53.56200 27.75200
H  35.60400 52.66100 21.57900
H  36.61900 46.49900 22.72500
H  33.85700 49.64500 30.28600
H  34.49900 52.36000 29.82100
H  31.92700 52.02300 28.82400
H  32.30200 52.65000 30.40600
H  31.87100 50.93900 30.21400
H  36.34800 51.29400 30.42100
H  36.54700 49.55500 30.25800
H  35.89400 51.26500 32.53500
H  36.14900 49.47100 32.54200
H  33.11100 56.13200 25.12600
H  34.50500 56.27400 26.17600
H  33.12800 55.50300 26.75700
H  34.79000 57.12800 23.27700
H  33.09000 56.73000 22.83700
H  34.45500 57.11000 21.71200
H  37.07600 50.56600 20.61600
H  35.49800 48.04500 20.71400
H  35.74600 51.19400 19.09200
H  34.31200 50.69900 20.06100
H  35.07200 49.59000 19.02700
H  37.83100 48.14500 19.69600
H  37.75500 46.85700 20.92700
H  39.44400 47.77500 22.02200
H  38.57400 49.35600 22.12900
H  39.64500 49.11900 20.79900
H  37.67500 44.28600 25.85500
H  37.52900 44.80600 24.24700
H  36.12400 43.98800 24.92000
H  36.09300 47.35400 29.90000
H  32.48700 45.91500 31.78000
H  33.56400 45.88200 33.16900
H  33.81500 44.64500 31.94800


