%nproc=24
%mem=175gb
#p cam-b3lyp/Def2SVP td=(nstates=5) density=(transition=1)

TDDFT excited states in gaussian

0 1
Mg 9.20000 47.36600 24.88000
C  7.02600 47.76900 27.74700
C  11.57000 48.44700 26.79100
C  10.94600 47.19300 22.09000
C  6.29100 46.96700 22.73800
N  9.27600 47.92100 27.10800
C  8.32000 48.03400 28.09600
C  8.93500 48.52700 29.35600
C  10.25500 49.18700 28.88100
C  10.38000 48.52600 27.48800
C  10.19000 50.72500 28.75600
C  9.27100 47.32000 30.28400
C  8.91000 47.48600 31.81100
H  8.76300 46.21000 32.73200
N  11.12300 47.75000 24.52700
C  11.99300 48.08000 25.44400
C  13.30700 48.11300 24.83000
C  13.09300 47.62600 23.51900
C  11.67000 47.53200 23.33600
C  14.56100 48.44000 25.66100
C  14.15200 47.33300 22.49300
O  13.84400 46.95300 21.40300
C  15.59100 47.42400 22.88400
N  8.59400 47.38800 22.62900
C  9.59400 47.15300 21.78200
C  9.10700 46.72400 20.44900
C  7.56400 46.85800 20.64800
C  7.41500 47.09900 22.12700
C  9.70100 47.44000 19.18300
C  6.80800 45.57800 20.11700
C  6.00900 45.65200 18.78600
N  7.17400 47.35700 25.08600
C  6.10400 47.11400 24.19600
C  4.83100 47.11900 24.94600
C  5.17200 47.34400 26.27300
C  6.54300 47.52700 26.33600
C  3.42100 47.05000 24.31100
C  4.55900 47.48400 27.63300
O  3.43200 47.38700 28.05800
C  5.73500 47.94200 28.63300
C  5.68600 47.23700 29.86100
O  6.32700 46.19300 30.04600
O  4.84600 47.74900 30.84500
C  4.90400 47.16700 32.22100
H  12.46500 48.75400 27.33500
H  11.53100 47.07200 21.17600
H  5.40800 46.83900 22.11000
H  8.32300 49.32300 29.78100
H  11.13800 49.00400 29.49300
H  10.92100 51.19300 29.41600
H  9.18200 51.02300 29.04300
H  10.33700 51.10600 27.74500
H  10.35100 47.19900 30.19800
H  8.78700 46.45500 29.83100
H  8.00100 48.08400 31.87000
H  9.74500 48.08400 32.17800
H  15.18900 47.54900 25.70000
H  14.38200 48.83100 26.66200
H  15.20000 49.13500 25.11700
H  15.85600 46.71400 23.66700
H  15.91500 48.35300 23.35300
H  16.20400 47.15000 22.02500
H  9.34100 45.66500 20.34000
H  7.22100 47.78300 20.18400
H  10.49600 48.09000 19.54700
H  9.00000 47.94700 18.51900
H  10.12400 46.67900 18.52700
H  6.07000 45.27200 20.85900
H  7.53000 44.76900 20.22800
H  6.23700 44.78300 18.16900
H  6.25500 46.57800 18.26600
H  4.93600 45.62800 18.98000
H  3.49200 46.43400 23.41500
H  3.14200 48.04200 23.95500
H  2.68000 46.64400 25.00000
H  5.61100 49.00700 28.82700
H  5.88500 47.32300 32.67200
H  4.47300 46.16700 32.25100
H  4.32200 47.83100 32.86000
Mg -9.66500 18.33400 42.78400
C  -6.24000 17.80500 42.49600
C  -9.09900 21.67600 42.05300
C  -12.91200 18.87400 42.48300
C  -10.14800 14.91400 43.00500
N  -7.91600 19.56100 42.17100
C  -6.59800 19.16200 42.25800
C  -5.63300 20.29600 42.07600
C  -6.57300 21.55800 42.31900
C  -7.95100 20.93600 42.13600
C  -6.37100 22.54100 43.56800
C  -4.81400 20.28500 40.70300
C  -5.51800 19.69700 39.44400
H  -5.27900 20.48100 38.17600
N  -10.85700 20.01500 42.21400
C  -10.42000 21.32200 41.96500
C  -11.51000 22.18000 41.58900
C  -12.66600 21.36900 41.68400
C  -12.20600 20.01400 42.11100
C  -11.29500 23.68900 41.46200
C  -14.07900 21.93000 41.40500
O  -14.25800 23.08100 40.99400
C  -15.20100 21.03000 41.71200
N  -11.24800 17.01300 42.63400
C  -12.52300 17.52900 42.79400
C  -13.59000 16.43700 43.02800
C  -12.64200 15.17100 42.94600
C  -11.28500 15.70200 42.80600
C  -14.41600 16.47100 44.27500
C  -12.97300 14.21900 41.68800
C  -13.02000 12.77100 42.10100
N  -8.45700 16.64500 42.95800
C  -8.80300 15.30900 43.04100
C  -7.58100 14.47400 43.08900
C  -6.53000 15.43300 42.87800
C  -7.12900 16.69600 42.80500
C  -7.42000 13.00900 43.03700
C  -5.08700 15.65900 42.64900
O  -4.19400 14.85200 42.53200
C  -4.84400 17.18800 42.43700
C  -3.86600 17.68600 43.40500
O  -2.75700 18.18900 43.22300
O  -4.28400 17.22800 44.68200
C  -3.45300 17.67600 45.82000
H  -8.86100 22.74200 42.07500
H  -13.99400 18.96100 42.60100
H  -10.40600 13.86400 43.15400
H  -4.85200 20.25200 42.83500
H  -6.35600 22.13700 41.42100
H  -5.49500 22.34800 44.18700
H  -7.18200 22.50000 44.29500
H  -6.14100 23.54200 43.20200
H  -3.84000 19.81700 40.84200
H  -4.55300 21.32400 40.50200
H  -6.59000 19.59400 39.61500
H  -5.14100 18.69400 39.24600
H  -11.94900 24.16700 40.73200
H  -10.29700 23.87500 41.06600
H  -11.49900 24.10000 42.45100
H  -15.27200 20.92300 42.79400
H  -15.05600 20.07500 41.20600
H  -16.08400 21.54300 41.33100
H  -14.18800 16.36800 42.11900
H  -12.69300 14.77700 43.96100
H  -14.92900 15.51000 44.31600
H  -15.20300 17.20800 44.11500
H  -13.79200 16.69500 45.14100
H  -12.21000 14.42700 40.93800
H  -13.86700 14.45400 41.10900
H  -12.15800 12.27100 41.66000
H  -13.81800 12.22200 41.60000
H  -12.89800 12.69100 43.18100
H  -8.34400 12.43000 43.00100
H  -6.93100 12.73100 43.97000
H  -6.96900 12.89900 42.05100
H  -4.46800 17.26400 41.41700
H  -4.21000 17.98200 46.54300
H  -2.74000 18.49300 45.70900
H  -3.06600 16.75200 46.25000


