%nproc=24
%mem=175gb
#p cam-b3lyp/Def2SVP td=(nstates=5)

TDDFT excited states in gaussian

0 1
Mg 40.61000 41.38800 26.95600
C  39.86800 43.56800 29.58900
C  41.56600 39.09100 29.09600
C  42.01100 39.61800 24.36600
C  40.07100 44.02500 24.67100
N  40.59100 41.34900 29.06300
C  40.20000 42.29100 29.98900
C  40.16900 41.71800 31.40000
C  40.93300 40.36900 31.20600
C  40.94200 40.20500 29.72600
C  42.27000 40.16100 31.88400
C  38.74600 41.61400 32.03600
C  38.70900 41.06400 33.46600
H  37.95300 41.90400 34.48500
N  41.75400 39.53700 26.76500
C  41.90400 38.67000 27.78800
C  42.49400 37.45600 27.29600
C  42.73100 37.64100 25.92300
C  42.16600 38.98800 25.63800
C  42.83400 36.26800 28.17100
C  43.30000 36.69700 24.91500
O  43.61700 36.97700 23.72800
C  43.50600 35.23000 25.27200
N  41.00200 41.78000 24.87100
C  41.64700 40.91600 24.05300
C  41.55500 41.44600 22.52200
C  40.51800 42.61700 22.64600
C  40.44500 42.80800 24.12700
C  42.99600 41.87100 22.03700
C  39.09100 42.15200 22.17700
C  38.49200 40.88200 22.76100
N  40.00500 43.44200 27.05400
C  39.84200 44.33300 26.02900
C  39.43100 45.53300 26.59500
C  39.42300 45.36800 28.01000
C  39.78400 44.06700 28.24300
C  39.15600 46.83600 25.93100
C  39.20700 45.98800 29.33700
O  38.93200 47.12500 29.70300
C  39.39600 44.78700 30.41700
C  40.24300 45.23600 31.55400
O  41.22600 46.02900 31.45500
O  39.66700 44.79200 32.66300
C  40.07000 45.50000 33.86300
H  41.79000 38.25100 29.75700
H  42.42000 39.05300 23.52500
H  39.79000 44.77400 23.92900
H  40.67200 42.47500 32.00200
H  40.36400 39.50500 31.55100
H  42.49900 40.80900 32.73000
H  43.06200 40.23200 31.13800
H  42.35700 39.09400 32.09000
H  38.09900 41.02000 31.39000
H  38.28900 42.60300 32.04400
H  39.66400 41.20800 33.97100
H  38.39800 40.01900 33.48100
H  42.71500 36.43800 29.24100
H  43.88400 35.97700 28.18900
H  42.26200 35.37200 27.92800
H  44.31400 35.17500 26.00100
H  43.97700 34.67500 24.46100
H  42.58300 34.72100 25.55200
H  41.23200 40.63200 21.87300
H  40.99300 43.46400 22.15100
H  43.79600 41.51800 22.68800
H  43.14700 42.94900 21.97800
H  43.27300 41.44900 21.07200
H  39.29200 42.04500 21.11100
H  38.30900 42.90300 22.28500
H  39.25300 40.32600 23.30900
H  37.94200 40.24300 22.07100
H  37.70100 41.27300 23.40100
H  38.42700 46.78300 25.12200
H  40.10600 47.12900 25.48500
H  38.86200 47.61200 26.63700
H  38.38700 44.62200 30.79400
H  39.19900 45.70100 34.48800
H  40.53400 46.47500 33.71600
H  40.74300 44.82600 34.39400
Mg 29.10200 58.37000 41.70600
C  26.21100 56.85000 40.52500
C  31.00300 55.92400 39.98500
C  31.78200 60.36200 41.82300
C  27.09800 61.07100 42.76300
N  28.62400 56.74200 40.07100
C  27.36300 56.19900 40.01300
C  27.34200 54.94600 39.19500
C  28.87800 54.50900 39.24100
C  29.59900 55.79900 39.77000
C  29.21600 53.21300 40.13700
C  26.66600 55.21800 37.75400
C  26.06800 54.05700 37.13700
H  26.60500 53.76400 35.72000
N  31.13700 58.12700 41.18100
C  31.72600 57.03700 40.48100
C  33.15300 57.29600 40.39000
C  33.42500 58.57400 40.93600
C  32.09000 59.05300 41.42900
C  34.07200 56.38900 39.66000
C  34.85200 59.26600 40.92400
O  35.77500 58.62800 40.42000
C  35.15900 60.50100 41.76400
N  29.32700 60.43000 42.12600
C  30.57900 60.94600 42.21600
C  30.58100 62.56100 42.56700
C  29.07200 62.72600 43.08400
C  28.42300 61.36300 42.68500
C  31.60200 63.02200 43.67500
C  28.34100 63.90500 42.43900
C  27.75100 65.04300 43.30600
N  27.08200 58.74100 41.92000
C  26.43600 59.84700 42.39100
C  25.02600 59.57700 42.45300
C  24.91200 58.38300 41.64600
C  26.21500 57.96500 41.32600
C  23.95900 60.50800 42.95200
C  23.95200 57.50800 41.00600
O  22.77000 57.42900 41.15100
C  24.75000 56.37400 40.25200
C  24.55300 54.95400 40.82700
O  24.66200 54.66400 41.99900
O  24.13200 54.08300 39.80100
C  23.73600 52.76500 40.19600
H  31.53000 55.10300 39.49600
H  32.55200 61.12000 41.66600
H  26.51800 61.92400 43.12000
H  26.89400 54.10800 39.73000
H  29.20300 54.31600 38.21800
H  29.65600 52.49600 39.44400
H  28.33800 52.79800 40.63100
H  29.96300 53.53300 40.86400
H  27.50600 55.54800 37.14300
H  26.02700 56.07100 37.98400
H  24.99800 54.25700 37.09500
H  26.28800 53.16600 37.72500
H  33.60300 55.42900 39.44500
H  34.92200 56.13300 40.29300
H  34.37800 56.81900 38.70600
H  34.62000 61.39400 41.44600
H  36.23600 60.66600 41.71900
H  34.91600 60.25600 42.79800
H  30.70200 63.02600 41.58900
H  28.95600 62.73400 44.16800
H  32.36800 63.65500 43.22800
H  32.08100 62.14600 44.11400
H  31.02600 63.57600 44.41700
H  27.57000 63.56900 41.74600
H  28.92000 64.44500 41.69000
H  26.66500 65.11700 43.36900
H  28.07200 65.96200 42.81500
H  28.11700 64.98900 44.33200
H  23.07500 59.90100 43.14900
H  23.49000 61.12600 42.18700
H  24.26100 61.15900 43.77200
H  24.32100 56.40300 39.25000
H  23.95500 52.21700 39.27900
H  22.65500 52.67800 40.30400
H  24.24700 52.46200 41.10900


