%nproc=24
%mem=175gb
#p cam-b3lyp/Def2SVP td=(nstates=5)

TDDFT excited states in gaussian

0 1
Mg 46.81700 25.04400 28.06300
C  47.43500 27.22400 30.70400
C  46.22200 22.54500 30.24300
C  46.68300 22.91500 25.44100
C  47.91200 27.51000 25.91600
N  46.85500 24.93200 30.27600
C  46.92700 25.99900 31.13500
C  46.69200 25.55600 32.52900
C  46.35500 24.06200 32.46000
C  46.45000 23.76800 30.90100
C  47.14000 23.08900 33.32600
C  45.54800 26.46400 33.25900
C  45.96500 27.28000 34.50500
H  45.04500 27.40000 35.69500
N  46.38000 23.04600 27.85500
C  46.17200 22.14900 28.89200
C  45.97200 20.84900 28.36300
C  46.10600 20.92300 26.95000
C  46.38200 22.34000 26.69200
C  45.54700 19.69500 29.35300
C  46.04800 19.73200 25.99500
O  46.24200 19.78300 24.77100
C  45.65900 18.41400 26.50400
N  47.46200 25.07000 25.97900
C  47.20100 24.13500 25.08900
C  47.75300 24.52400 23.69900
C  47.64000 26.09100 23.86200
C  47.64600 26.26000 25.37800
C  49.21100 24.11600 23.27000
C  46.37000 26.80300 23.19000
C  45.02600 26.38600 23.62800
N  47.60700 27.03800 28.18700
C  48.00800 27.95100 27.19200
C  48.42700 29.16900 27.80900
C  48.29400 28.93400 29.16300
C  47.68500 27.64800 29.33600
C  49.11900 30.26800 27.16400
C  48.30700 29.55700 30.40200
O  48.64500 30.69400 30.74700
C  47.85400 28.48300 31.49300
C  49.08400 28.17700 32.28200
O  50.16500 27.73400 31.95500
O  48.78800 28.53400 33.53300
C  49.86000 28.29900 34.55500
H  45.83500 21.89200 31.02800
H  46.47600 22.23000 24.61700
H  48.19300 28.30200 25.21900
H  47.64500 25.71200 33.03300
H  45.30400 23.92600 32.71400
H  47.87300 22.82100 32.56600
H  46.56600 22.26800 33.75600
H  47.69200 23.45800 34.19000
H  44.70400 25.82300 33.51200
H  45.17000 27.27500 32.63600
H  46.05600 28.31300 34.16800
H  46.96700 27.02300 34.84600
H  46.22400 18.85300 29.21000
H  44.59100 19.46800 28.88100
H  45.60100 19.88500 30.42500
H  46.32300 18.09200 27.30500
H  45.94900 17.70600 25.72800
H  44.60000 18.29800 26.73600
H  46.98600 24.30500 22.95600
H  48.53000 26.46300 23.35500
H  49.97100 24.18900 24.04700
H  49.40300 24.79200 22.43600
H  49.23500 23.08400 22.91900
H  46.32700 26.67600 22.10800
H  46.28900 27.84300 23.50600
H  44.88500 26.94500 24.55200
H  44.84400 25.33800 23.86800
H  44.17200 26.64500 23.00300
H  50.15800 29.93700 27.14300
H  49.06200 31.22600 27.68000
H  48.71000 30.52400 26.18600
H  47.00000 28.80500 32.08900
H  49.50700 27.43600 35.12000
H  49.99000 29.19400 35.16300
H  50.84800 28.01700 34.19000
Mg -9.26600 18.27700 42.96500
C  -5.81100 17.58000 42.98100
C  -8.47400 21.42900 42.13900
C  -12.47500 18.67000 42.48700
C  -9.75200 14.74100 43.14100
N  -7.34400 19.34600 42.56200
C  -6.06200 18.93000 42.69300
C  -5.04000 20.02200 42.45000
C  -5.98500 21.29000 42.45900
C  -7.37700 20.70000 42.36700
C  -5.82600 22.23200 43.72300
C  -4.08200 20.00700 41.18000
C  -4.36600 19.09100 39.96000
H  -3.96500 19.61900 38.53200
N  -10.31800 19.93500 42.50700
C  -9.83700 21.10100 42.09700
C  -10.97100 21.97200 41.68400
C  -12.19800 21.17200 41.95900
C  -11.67600 19.85500 42.32500
C  -10.82500 23.41900 41.29700
C  -13.61600 21.63300 41.74500
O  -13.81100 22.79100 41.38400
C  -14.89900 20.73300 41.88300
N  -10.94800 16.84400 42.71500
C  -12.12100 17.37600 42.70200
C  -13.18200 16.19300 42.82000
C  -12.25700 14.97500 42.77500
C  -10.85500 15.54600 42.86600
C  -14.16200 16.18100 44.00500
C  -12.30000 14.18000 41.36900
C  -12.88700 12.75700 41.40300
N  -8.10600 16.49700 42.98200
C  -8.41600 15.17700 43.17700
C  -7.19300 14.39200 43.48700
C  -6.09500 15.27800 43.29700
C  -6.75800 16.56600 43.10100
C  -7.09800 12.86900 43.72900
C  -4.68100 15.45100 43.26700
O  -3.71100 14.67400 43.28400
C  -4.42500 16.97400 43.13600
C  -3.61000 17.39300 44.36300
O  -2.45500 17.69200 44.51200
O  -4.50700 17.60300 45.41600
C  -3.95600 18.13500 46.70100
H  -8.18700 22.44600 41.86300
H  -13.54300 18.86100 42.35700
H  -9.93500 13.71100 43.45300
H  -4.44700 20.04900 43.36400
H  -5.75600 21.91400 41.59500
H  -5.11000 21.81600 44.43100
H  -6.79600 22.11100 44.20400
H  -5.58800 23.24500 43.39800
H  -3.08000 19.78600 41.54800
H  -3.99700 21.02300 40.79300
H  -5.44200 18.91700 39.97000
H  -3.77000 18.17900 39.94600
H  -11.77100 23.96000 41.28900
H  -10.25700 23.43000 40.36600
H  -10.11700 23.80900 42.02900
H  -15.08400 20.15000 42.78600
H  -14.85100 19.96100 41.11500
H  -15.81700 21.30800 41.76500
H  -13.87700 16.19700 41.98100
H  -12.39400 14.18200 43.51100
H  -14.02600 17.04700 44.65300
H  -14.09900 15.25100 44.57100
H  -15.20700 16.25900 43.70500
H  -11.30400 14.05300 40.94700
H  -12.88100 14.81200 40.69700
H  -12.44900 12.05100 40.69700
H  -13.92900 12.87300 41.10500
H  -12.71100 12.44000 42.43100
H  -7.98800 12.30200 43.45800
H  -6.94100 12.78400 44.80400
H  -6.18900 12.50600 43.25000
H  -3.84800 17.16600 42.23200
H  -2.93200 17.88100 46.97400
H  -4.58000 17.65400 47.45400
H  -4.05900 19.20000 46.91000


