%nproc=24
%mem=175gb
#p cam-b3lyp/Def2SVP td=(nstates=5) density=(transition=1)

TDDFT excited states in gaussian

0 1
Mg 16.95800 -2.04300 28.05800
C  15.67900 0.03700 30.54100
C  18.78700 -3.72100 30.44000
C  18.31300 -3.78900 25.50500
C  15.32700 0.02400 25.64200
N  17.25900 -1.76300 30.19400
C  16.62800 -0.88400 31.01900
C  16.98400 -1.14100 32.48900
C  18.10000 -2.26900 32.35300
C  18.02400 -2.61400 30.86200
C  19.48200 -1.75800 32.74200
C  15.83300 -1.72700 33.38200
C  15.87500 -1.41800 34.85600
H  17.10800 -0.90300 35.45200
N  18.26300 -3.57700 28.00200
C  18.92400 -4.12800 29.11800
C  19.62000 -5.29300 28.63800
C  19.47300 -5.38800 27.23100
C  18.65200 -4.21500 26.84200
C  20.55500 -6.11300 29.50100
C  19.94500 -6.39800 26.27100
O  19.91000 -6.24200 25.06900
C  20.68300 -7.69100 26.77500
N  16.72600 -2.04100 25.82800
C  17.40600 -2.83200 25.05300
C  17.12300 -2.53800 23.54900
C  16.12900 -1.39100 23.56700
C  16.05500 -1.03300 25.09500
C  18.49500 -2.31000 22.75600
C  14.77700 -1.75000 22.91500
C  14.57500 -1.34500 21.40700
N  15.59300 -0.54700 28.03400
C  15.01200 0.20800 26.98500
C  14.13500 1.19500 27.48900
C  14.45500 1.19400 28.91300
C  15.31700 0.08300 29.13900
C  13.41400 2.25000 26.67000
C  14.16900 1.92500 30.09200
O  13.43900 2.88400 30.30900
C  14.95100 1.07800 31.29700
C  15.78000 2.10000 32.01800
O  16.65500 2.79200 31.48700
O  15.36200 2.29400 33.36800
C  16.13600 3.30900 34.14900
H  19.34000 -4.20600 31.24800
H  18.93000 -4.26900 24.74300
H  14.76600 0.65500 24.95000
H  17.39400 -0.20500 32.86900
H  17.90900 -3.13400 32.98800
H  19.41600 -0.81500 33.28400
H  20.16500 -1.70100 31.89400
H  19.97000 -2.35300 33.51400
H  15.82100 -2.80600 33.23200
H  14.89600 -1.40800 32.92500
H  15.72700 -2.36200 35.38000
H  15.08500 -0.70500 35.09200
H  21.59900 -6.03400 29.19800
H  20.20800 -7.14700 29.48400
H  20.60300 -5.83600 30.55400
H  21.71600 -7.39100 26.95300
H  20.76400 -8.41600 25.96500
H  20.25400 -8.04400 27.71200
H  16.67800 -3.47000 23.20000
H  16.55100 -0.48300 23.13900
H  18.49400 -1.34000 22.25900
H  18.63800 -3.00100 21.92500
H  19.26300 -2.34000 23.53000
H  14.01500 -1.24300 23.50800
H  14.64200 -2.82300 23.05200
H  14.22000 -0.31400 21.38800
H  13.95900 -1.97800 20.76800
H  15.61200 -1.30800 21.07500
H  12.51000 1.73500 26.34600
H  13.99600 2.54300 25.79700
H  13.31000 3.23400 27.12900
H  14.20300 0.59900 31.93000
H  16.03100 4.30700 33.72500
H  17.20500 3.14900 34.29200
H  15.57400 3.26700 35.08200
Mg 46.63400 24.73200 28.52400
C  47.16600 26.79400 31.26900
C  45.35000 22.41900 30.76700
C  46.57500 22.51000 25.95000
C  48.10800 27.10900 26.49100
N  46.35100 24.60700 30.77200
C  46.60600 25.59200 31.71400
C  46.32600 25.14000 33.20100
C  46.05100 23.60400 32.96700
C  45.94200 23.50100 31.40100
C  47.03100 22.54000 33.47000
C  45.17300 25.95500 33.81500
C  45.53600 26.98000 34.85700
H  44.55500 27.15400 36.03000
N  45.88000 22.81500 28.28900
C  45.34100 22.11500 29.32300
C  44.95500 20.80900 28.75400
C  45.37600 20.75700 27.41600
C  45.95000 22.01600 27.13800
C  44.14400 19.85300 29.53100
C  45.30700 19.63400 26.42300
O  45.62600 19.75900 25.20800
C  44.90700 18.30200 26.75200
N  47.16200 24.82000 26.54200
C  47.02200 23.79200 25.66100
C  47.50000 24.11000 24.29900
C  47.94400 25.61100 24.43200
C  47.78600 25.82800 25.89000
C  48.58100 23.27100 23.55600
C  47.18600 26.64400 23.46000
C  45.80900 27.28400 23.80700
N  47.51200 26.55300 28.75500
C  48.03300 27.42300 27.84100
C  48.30100 28.65400 28.44600
C  48.04200 28.39000 29.84600
C  47.54000 27.10900 29.96100
C  48.74800 29.95300 27.77800
C  47.98400 29.05500 31.11600
O  48.14900 30.19900 31.48800
C  47.61900 27.93100 32.14800
C  48.80500 27.58900 32.95800
O  49.43200 26.50700 32.93800
O  49.23500 28.58100 33.76800
C  50.27600 28.29000 34.81200
H  45.00700 21.67200 31.48500
H  46.61700 21.83300 25.09400
H  48.42100 27.96800 25.89300
H  47.24300 25.06200 33.78600
H  45.06600 23.41800 33.39500
H  47.53600 22.06600 32.62800
H  46.41900 21.72900 33.86200
H  47.76900 22.88500 34.19500
H  44.55000 25.22000 34.32600
H  44.58000 26.37000 33.00000
H  45.61600 27.94300 34.35200
H  46.51600 26.85600 35.31800
H  43.21600 19.75600 28.96900
H  43.90200 20.07100 30.57200
H  44.63900 18.88200 29.54400
H  45.42400 18.07100 27.68300
H  45.01300 17.64200 25.89200
H  43.86100 18.27000 27.05700
H  46.55600 24.02200 23.76200
H  49.01300 25.68800 24.23700
H  48.17600 22.76600 22.67900
H  48.97300 22.47900 24.19500
H  49.46000 23.85000 23.27300
H  47.00900 26.03100 22.57600
H  47.98400 27.36400 23.27800
H  45.45700 27.11300 24.82400
H  45.01200 27.13000 23.07900
H  45.99000 28.35100 23.68400
H  49.68100 30.32800 28.20000
H  47.99600 30.71000 28.00000
H  48.80300 29.90800 26.69000
H  46.94500 28.37300 32.88200
H  50.12900 29.19800 35.39700
H  51.29200 28.18100 34.43400
H  50.01200 27.37900 35.35000


