%nproc=24
%mem=175gb
#p cam-b3lyp/Def2SVP td=(nstates=5) density=(transition=1)

TDDFT excited states in gaussian

0 1
Mg 40.74100 8.40300 29.69900
C  42.66000 10.02500 32.01600
C  38.73200 7.21500 32.07700
C  39.17900 6.75200 27.36300
C  43.28300 9.22800 27.34100
N  40.79300 8.45600 31.86800
C  41.50500 9.39200 32.54400
C  40.94800 9.63500 33.92000
C  39.85300 8.49700 34.00200
C  39.82700 7.94800 32.59200
C  40.10000 7.44100 35.10600
C  40.44100 11.18100 34.18500
C  40.87000 11.88200 35.48300
H  41.23900 10.96600 36.69200
N  39.13800 7.34400 29.69200
C  38.39900 6.91700 30.74900
C  37.34700 6.00300 30.37600
C  37.33700 6.02300 29.01400
C  38.65500 6.62800 28.64700
C  36.61000 5.29800 31.50000
C  36.33400 5.36600 28.04500
O  36.44200 5.38700 26.84100
C  35.20700 4.65100 28.73000
N  41.30000 7.91900 27.67200
C  40.36700 7.31400 26.91500
C  40.80200 7.26400 25.44700
C  41.95100 8.32700 25.38700
C  42.23200 8.49800 26.89400
C  41.21600 5.86100 24.82900
C  41.58000 9.72400 24.76100
C  40.48400 10.59900 25.31000
N  42.57200 9.48100 29.57000
C  43.55300 9.66900 28.59100
C  44.67900 10.46300 29.09900
C  44.36400 10.63700 30.45500
C  43.08700 10.02200 30.64800
C  45.85600 11.01300 28.33500
C  44.78800 11.17000 31.66800
O  45.80500 11.75000 32.01500
C  43.61600 11.01200 32.67100
C  44.29700 10.49000 33.87800
O  44.63700 9.31800 34.05700
O  44.61300 11.49900 34.74100
C  45.54500 11.24000 35.84300
H  37.99000 7.00700 32.85100
H  38.68100 6.27000 26.52000
H  43.95700 9.44200 26.50800
H  41.68000 9.37000 34.68300
H  38.87700 8.95900 34.14900
H  40.48500 6.53200 34.64400
H  39.14600 7.20600 35.57800
H  40.83000 7.87400 35.79000
H  39.35300 11.12200 34.15300
H  40.80700 11.84200 33.40000
H  40.04300 12.46600 35.88600
H  41.65400 12.60800 35.26800
H  37.22900 4.66200 32.13300
H  35.89000 4.51000 31.28000
H  36.12800 6.14400 31.99000
H  34.67500 5.32500 29.40100
H  35.72300 3.80100 29.17600
H  34.37800 4.27900 28.12900
H  39.88500 7.56300 24.93800
H  42.83200 7.86300 24.94300
H  41.11200 5.08600 25.58800
H  42.28100 5.83900 24.60100
H  40.70000 5.56000 23.91600
H  41.36300 9.40900 23.74000
H  42.43100 10.40400 24.73900
H  39.92000 10.04700 26.06300
H  39.77700 10.86400 24.52400
H  40.79900 11.50000 25.83600
H  46.78200 10.48700 28.56300
H  45.97200 12.07500 28.55200
H  45.60900 10.77100 27.30100
H  43.07400 11.94700 32.81400
H  46.05900 12.14500 36.16900
H  46.18500 10.38200 35.64300
H  45.04400 10.86200 36.73400
Mg 29.46400 59.14500 41.03800
C  26.57800 57.38900 40.28900
C  31.34900 56.53100 39.78200
C  32.15000 61.18900 41.08600
C  27.35400 61.82000 41.94900
N  28.99200 57.29200 39.87100
C  27.77200 56.74800 39.89300
C  27.77900 55.38900 39.12700
C  29.32900 54.99700 39.21800
C  29.96700 56.34400 39.73200
C  29.58100 53.72700 40.06600
C  27.37400 55.59400 37.68500
C  26.46000 54.52700 37.10300
H  26.57800 54.02100 35.61600
N  31.53300 58.78800 40.65000
C  32.11000 57.71400 40.08400
C  33.51500 57.95800 40.03300
C  33.80600 59.24700 40.57400
C  32.47900 59.81600 40.84000
C  34.47700 56.89100 39.66100
C  35.16200 59.85800 40.59300
O  36.13000 59.21400 40.22400
C  35.39700 61.26400 41.13200
N  29.71300 61.28200 41.56500
C  30.94400 61.84600 41.41400
C  30.85900 63.33400 41.52000
C  29.29200 63.52200 41.79300
C  28.69900 62.13600 41.84900
C  31.79900 63.96200 42.56600
C  28.51800 64.48000 40.78300
C  27.64200 65.63900 41.31400
N  27.43700 59.54700 41.14000
C  26.74400 60.62700 41.58900
C  25.41200 60.28000 41.81900
C  25.25400 58.98400 41.34800
C  26.48900 58.61100 40.88000
C  24.32700 61.25500 42.36300
C  24.37200 57.92800 41.16800
O  23.15900 57.91800 41.34600
C  25.14900 56.75500 40.39700
C  25.25800 55.58200 41.18700
O  25.99300 55.31600 42.14100
O  24.33400 54.68200 40.66500
C  24.17500 53.35900 41.24400
H  31.95200 55.65500 39.53500
H  32.91900 61.96200 41.15300
H  26.80500 62.68200 42.33400
H  27.08300 54.71900 39.63100
H  29.81700 54.88800 38.25000
H  28.66900 53.37400 40.54700
H  30.34000 53.93800 40.82000
H  30.00600 52.97200 39.40500
H  28.16800 55.74800 36.95400
H  26.92700 56.58800 37.67000
H  25.44000 54.85100 37.30900
H  26.66400 53.69100 37.77200
H  34.81300 56.52500 40.63100
H  35.29700 57.28300 39.05900
H  34.02200 56.08300 39.08800
H  35.10600 61.93900 40.32700
H  36.47900 61.37300 41.20200
H  34.84400 61.42100 42.05800
H  31.14300 63.61000 40.50500
H  29.10900 64.04800 42.73000
H  32.59600 64.44300 41.99800
H  32.19100 63.23400 43.27700
H  31.26900 64.75100 43.09900
H  27.85100 63.86700 40.17700
H  29.18800 65.01800 40.11200
H  26.69000 65.11600 41.40400
H  27.54400 66.41700 40.55800
H  27.77900 66.00900 42.33000
H  24.06200 61.95200 41.56900
H  24.63400 61.90700 43.18100
H  23.42900 60.71200 42.65900
H  24.61600 56.61800 39.45600
H  23.13300 53.07400 41.10200
H  24.52900 53.25500 42.27000
H  24.72400 52.65900 40.61400


