%nproc=24
%mem=175gb
#p cam-b3lyp/Def2SVP td=(nstates=5) density=(transition=1)

TDDFT excited states in gaussian

0 1
Mg 46.81300 34.80600 27.83700
C  45.17600 32.79100 30.24000
C  46.71900 37.24900 30.02700
C  47.33800 36.80600 25.25700
C  46.11100 32.19400 25.53200
N  46.14800 34.85100 30.00200
C  45.62400 33.97200 30.77600
C  45.62400 34.45800 32.24000
C  45.67300 36.06300 32.08800
C  46.14500 36.09800 30.57500
C  44.31800 36.83800 32.33200
C  46.95000 33.94900 33.01300
C  46.90000 33.61900 34.54000
H  45.84300 34.41700 35.38900
N  47.21100 36.73800 27.68900
C  47.17400 37.59200 28.78100
C  47.54700 38.97300 28.31200
C  47.76600 38.81400 26.88000
C  47.45200 37.44200 26.47200
C  47.57300 40.14900 29.27000
C  48.24400 39.87200 25.91000
O  48.37500 39.70100 24.69000
C  48.62100 41.19700 26.43700
N  46.83600 34.49900 25.62400
C  47.04000 35.53300 24.82800
C  47.32500 35.03100 23.34300
C  46.87400 33.47700 23.48000
C  46.62500 33.36900 24.98200
C  46.58500 35.85900 22.24100
C  47.86700 32.37700 22.98000
C  47.46400 31.59700 21.75500
N  46.03500 32.76500 27.86100
C  45.83400 31.87700 26.82300
C  45.15900 30.73800 27.28800
C  44.84600 31.07700 28.61800
C  45.34900 32.31400 28.94500
C  44.79200 29.55000 26.55100
C  44.25600 30.51400 29.77000
O  43.77000 29.39300 30.08200
C  44.20600 31.72700 30.80400
C  44.55000 31.25500 32.16900
O  45.61400 30.77700 32.55700
O  43.43700 31.56400 33.01300
C  43.54100 31.17800 34.42600
H  46.79200 37.98600 30.83000
H  47.57400 37.46800 24.42200
H  45.97100 31.36600 24.83300
H  44.62300 34.28200 32.63300
H  46.32300 36.45800 32.86800
H  43.46200 36.16400 32.35700
H  44.09900 37.53000 31.51900
H  44.43400 37.33900 33.29300
H  47.78200 34.63400 32.84900
H  47.31500 33.05900 32.50000
H  47.84900 33.77500 35.05400
H  46.48500 32.61400 34.62600
H  48.46100 40.76800 29.13700
H  47.51700 39.85100 30.31700
H  46.63300 40.69500 29.19400
H  47.78800 41.66200 26.96500
H  48.94200 41.84200 25.61900
H  49.47200 41.20900 27.11800
H  48.38800 35.01100 23.10300
H  45.86800 33.30600 23.09400
H  45.91300 36.58500 22.69900
H  46.15500 35.05600 21.64200
H  47.35600 36.29200 21.60500
H  47.98100 31.65400 23.78800
H  48.84800 32.82300 22.81500
H  46.58600 32.13300 21.39700
H  47.14500 30.60700 22.08300
H  48.21600 31.60800 20.96700
H  45.69700 29.19600 26.05800
H  44.17700 29.70800 25.66500
H  44.42700 28.78900 27.24100
H  43.19600 32.13800 30.79400
H  42.60700 31.38000 34.95100
H  44.23500 31.85900 34.91900
H  43.73000 30.10700 34.49100
Mg -0.43700 44.18600 24.82500
C  1.43400 43.80100 27.72700
C  -3.18200 43.12800 26.59100
C  -2.25600 44.31000 21.89400
C  2.46600 44.70300 22.96600
N  -0.82100 43.63800 26.94100
C  0.04100 43.65300 27.97200
C  -0.60100 43.41700 29.35900
C  -2.06400 42.96100 28.94000
C  -2.04900 43.21000 27.35600
C  -2.28200 41.47000 29.38200
C  -0.53600 44.82000 30.15500
C  0.12400 44.79000 31.56500
H  0.16600 43.36300 32.22200
N  -2.40500 43.72200 24.25200
C  -3.41200 43.37700 25.17700
C  -4.69200 43.40700 24.50200
C  -4.45000 43.69100 23.15200
C  -2.97800 44.00900 23.04400
C  -5.95900 42.85900 25.17400
C  -5.47200 43.73000 21.98500
O  -5.19700 43.99600 20.80000
C  -6.95700 43.49800 22.31300
N  0.09900 44.39300 22.73100
C  -0.90800 44.46700 21.72100
C  -0.26100 44.51400 20.32100
C  1.23600 44.92600 20.70600
C  1.26600 44.70400 22.24100
C  -0.47400 43.18300 19.61900
C  1.52900 46.44600 20.35700
C  0.65700 47.66400 20.81600
N  1.53600 44.17200 25.19400
C  2.63200 44.38000 24.35100
C  3.83100 44.31600 25.12200
C  3.42700 44.13900 26.43300
C  2.02300 43.94900 26.43800
C  5.25700 44.36900 24.61300
C  3.89700 44.01900 27.75600
O  5.03000 43.96500 28.11500
C  2.62100 43.67600 28.63100
C  2.82000 42.26800 29.12000
O  2.22200 41.30700 28.68300
O  3.77300 42.30100 30.05900
C  4.37700 41.01200 30.29200
H  -4.07700 42.87100 27.16100
H  -2.79100 44.11000 20.96400
H  3.38600 44.85200 22.39600
H  -0.09900 42.67700 29.98200
H  -2.86900 43.57400 29.34600
H  -2.77400 40.83600 28.64400
H  -2.90900 41.64900 30.25500
H  -1.32000 41.10700 29.74300
H  -1.54200 45.23900 30.14700
H  0.04200 45.50300 29.53200
H  -0.52900 45.47000 32.11100
H  1.13900 45.18400 31.60700
H  -6.35300 42.07900 24.52200
H  -6.71900 43.64100 25.20200
H  -5.72100 42.49500 26.17300
H  -7.06800 42.43500 22.53100
H  -7.49100 43.66100 21.37700
H  -7.30300 44.26900 23.00100
H  -0.72000 45.37600 19.83600
H  1.94200 44.36800 20.09200
H  -1.38200 42.67100 19.93800
H  0.36900 42.51600 19.79800
H  -0.61300 43.32900 18.54800
H  1.65900 46.51600 19.27700
H  2.46900 46.62800 20.87800
H  -0.12600 47.82100 20.07400
H  1.34000 48.51400 20.83800
H  0.27600 47.62500 21.83700
H  5.47400 45.30000 24.08900
H  5.31100 43.53800 23.91000
H  6.03200 44.40300 25.38000
H  2.44000 44.27600 29.52300
H  5.42200 41.06200 30.59700
H  4.25200 40.18600 29.59200
H  3.93900 40.47400 31.13300


