%nproc=24
%mem=175gb
#p cam-b3lyp/Def2SVP td=(nstates=5) density=(transition=1)

TDDFT excited states in gaussian

0 1
Mg -2.04400 17.49100 26.73800
C  -2.15500 15.53600 29.75200
C  -2.48400 20.32400 28.82400
C  -2.10000 19.56800 23.93100
C  -2.02900 14.73500 24.85000
N  -2.50300 17.81300 29.09300
C  -2.37100 16.88400 30.06400
C  -2.66300 17.53000 31.46600
C  -2.96600 19.01100 31.04000
C  -2.55400 19.10600 29.55300
C  -4.45800 19.41500 31.30700
C  -1.49000 17.42200 32.44000
C  -1.82900 17.03100 33.84100
H  -0.68700 16.80800 34.84300
N  -2.05000 19.60600 26.40500
C  -2.24700 20.56500 27.39300
C  -2.18900 21.87200 26.76900
C  -1.98200 21.71100 25.40900
C  -2.11500 20.23400 25.17200
C  -2.46700 23.16900 27.47300
C  -1.85900 22.77200 24.24000
O  -1.68000 22.55800 23.06600
C  -1.78900 24.24000 24.60100
N  -2.21300 17.23900 24.73600
C  -2.21800 18.17300 23.73300
C  -2.50700 17.54400 22.35000
C  -2.23600 16.00100 22.60900
C  -2.12000 15.99700 24.18100
C  -3.92800 17.89500 21.80400
C  -0.96100 15.44100 21.90800
C  0.37100 15.96600 22.43900
N  -2.11100 15.55600 27.12300
C  -2.02800 14.45800 26.22200
C  -2.06000 13.19200 26.95100
C  -2.05400 13.57600 28.30400
C  -2.07200 14.99400 28.37800
C  -2.02800 11.85900 26.36100
C  -2.05700 13.00500 29.64700
O  -1.98500 11.83800 29.99400
C  -2.21400 14.25700 30.66700
C  -1.01500 13.99300 31.58100
O  0.19500 14.13800 31.33000
O  -1.45400 13.50000 32.72600
C  -0.50700 13.41700 33.91100
H  -2.54500 21.19300 29.48200
H  -2.11900 20.13500 22.99700
H  -1.94800 13.88000 24.17600
H  -3.47200 16.92500 31.87400
H  -2.32200 19.72000 31.56200
H  -4.61000 20.30200 31.92200
H  -5.09400 18.58600 31.61800
H  -5.01600 19.78600 30.44700
H  -1.29200 18.47500 32.64100
H  -0.61800 16.92800 32.01000
H  -2.49700 16.18800 34.02500
H  -2.37000 17.90200 34.21100
H  -2.54100 23.02800 28.55100
H  -3.37300 23.68600 27.15300
H  -1.69300 23.93100 27.38000
H  -0.93800 24.47000 25.24200
H  -2.76500 24.39500 25.06100
H  -1.83600 24.73500 23.63100
H  -1.82000 18.06600 21.68300
H  -3.08800 15.32400 22.54300
H  -3.89400 18.55600 20.93800
H  -4.67200 18.26800 22.50700
H  -4.29000 16.90500 21.52600
H  -1.14700 15.45600 20.83400
H  -0.92500 14.37100 22.11200
H  0.30800 16.76300 23.17900
H  0.88600 16.37900 21.57200
H  0.96700 15.25500 23.01000
H  -2.06800 11.03700 27.07600
H  -1.09600 11.82400 25.79700
H  -2.85300 11.79600 25.65000
H  -3.07800 14.15100 31.32300
H  -1.14400 13.30000 34.78800
H  0.04800 14.34000 34.07600
H  0.23900 12.62700 33.81700
Mg 34.81300 49.43200 25.14500
C  35.01600 47.65700 28.22400
C  33.32400 52.02800 26.83800
C  34.65200 50.90000 22.18900
C  35.90600 46.46600 23.43400
N  34.14900 49.79800 27.34500
C  34.46100 48.93800 28.38200
C  33.98800 49.65100 29.69500
C  33.38500 51.08500 29.24000
C  33.61700 50.95700 27.73100
C  31.94200 51.39000 29.69300
C  35.01900 49.70600 30.89700
C  34.55900 49.07300 32.17800
H  33.11300 48.96700 32.58500
N  34.17200 51.35300 24.58700
C  33.58900 52.24400 25.43200
C  33.45200 53.46600 24.68200
C  33.72500 53.14400 23.33500
C  34.19500 51.72200 23.26900
C  32.90900 54.73200 25.36600
C  33.46900 53.99900 22.13100
O  33.64100 53.56300 20.96800
C  32.94500 55.37500 22.31400
N  35.18300 48.68800 23.08400
C  35.11600 49.51200 22.09700
C  35.57200 48.95700 20.64400
C  35.95000 47.52900 21.06600
C  35.68700 47.53300 22.55200
C  34.36900 49.06600 19.63700
C  37.40800 47.05400 20.73300
C  38.54700 47.67100 21.57900
N  35.21400 47.49800 25.67400
C  35.61800 46.42200 24.84900
C  35.92400 45.27900 25.72000
C  35.71000 45.72300 27.04700
C  35.31700 47.10200 26.97200
C  36.42700 43.88500 25.23900
C  35.78900 45.30100 28.34400
O  36.05400 44.22400 28.83800
C  35.40700 46.52600 29.22100
C  34.34200 46.13400 30.11500
O  33.13700 46.19100 29.84500
O  34.87800 45.46700 31.22300
C  33.86400 44.85200 32.11500
H  32.63300 52.79500 27.19500
H  34.43900 51.33900 21.21200
H  36.24500 45.54000 22.96500
H  33.26200 48.90600 30.01800
H  33.96500 51.87500 29.71500
H  31.90300 52.32700 30.25000
H  31.43700 50.62000 30.27600
H  31.39300 51.49300 28.75700
H  35.30500 50.73900 31.09600
H  35.87800 49.12400 30.56300
H  34.83800 49.76200 32.97600
H  35.03100 48.09400 32.25300
H  32.96100 54.66600 26.45300
H  31.87600 54.89800 25.06300
H  33.55400 55.53200 25.00400
H  33.66100 55.90400 22.94300
H  31.99400 55.37100 22.84800
H  32.75700 55.84600 21.35000
H  36.44300 49.49500 20.26900
H  35.19100 46.83200 20.71000
H  33.44700 48.97400 20.21100
H  34.41800 48.21400 18.95800
H  34.29100 49.96700 19.02800
H  37.57700 47.10800 19.65800
H  37.43700 45.97400 20.87400
H  38.40300 48.69400 21.92500
H  39.48100 47.54600 21.03000
H  38.64300 47.01100 22.44100
H  37.30600 43.53600 25.78100
H  36.62200 43.84300 24.16800
H  35.74400 43.11800 25.60500
H  36.33300 46.69700 29.76900
H  33.38300 44.00700 31.62300
H  33.04700 45.51600 32.39500
H  34.36200 44.67800 33.06900


