%nproc=24
%mem=175gb
#p cam-b3lyp/Def2SVP td=(nstates=5) density=(transition=1)

TDDFT excited states in gaussian

0 1
Mg 45.00000 3.44200 47.03300
C  42.74800 5.98100 46.47100
C  42.51500 1.08600 46.99500
C  47.33500 0.85800 47.41000
C  47.61400 5.55900 46.25100
N  42.89400 3.58700 46.53800
C  42.09600 4.73400 46.51200
C  40.62300 4.38600 46.28300
C  40.66000 2.87900 46.64300
C  42.13500 2.42800 46.65300
C  39.85400 2.54000 47.91600
C  40.17300 4.67400 44.83700
C  38.76200 5.33200 44.65300
H  38.03300 4.97800 43.41600
N  44.91300 1.33100 47.23000
C  43.80200 0.56100 47.28100
C  44.07100 -0.78100 47.70300
C  45.44900 -0.85000 47.96600
C  45.98000 0.51500 47.55400
C  42.99500 -1.83600 47.96800
C  46.25300 -2.09300 48.49400
O  45.64300 -3.18400 48.63300
C  47.77600 -2.03300 48.94400
N  47.15200 3.17200 46.56100
C  47.86200 2.08300 46.94400
C  49.35200 2.30000 46.87800
C  49.47200 3.78200 46.46200
C  48.00700 4.22600 46.45700
C  50.12800 1.90800 48.17900
C  50.29800 3.99400 45.10500
C  51.71400 4.54900 45.29800
N  45.19600 5.38500 46.52800
C  46.33300 6.17700 46.25500
C  45.93600 7.59000 46.19700
C  44.55800 7.53700 46.35400
C  44.18300 6.18500 46.42000
C  46.76000 8.81000 45.98900
C  43.34800 8.37000 46.40400
O  43.19200 9.59500 46.53700
C  42.11400 7.38900 46.52800
C  41.34500 7.62500 47.82100
O  41.80700 7.77900 48.95600
O  40.04700 7.69400 47.41000
C  39.07000 8.09100 48.41000
H  41.73100 0.32600 46.99100
H  48.15700 0.16300 47.59400
H  48.39400 6.28300 46.00700
H  39.99900 4.98400 46.94800
H  40.15100 2.41000 45.80100
H  39.07600 3.22300 48.25700
H  40.58100 2.53900 48.72800
H  39.36600 1.56800 47.84800
H  40.24600 3.80100 44.18900
H  40.97000 5.28600 44.41400
H  38.87100 6.41600 44.68600
H  38.11500 4.99000 45.46200
H  43.14300 -2.15000 49.00100
H  42.99500 -2.57100 47.16300
H  42.06000 -1.27600 47.95400
H  48.36300 -2.15900 48.03500
H  47.92900 -2.88500 49.60600
H  47.87200 -1.14900 49.57500
H  49.74800 1.66300 46.08700
H  49.86100 4.46700 47.21500
H  50.84800 2.67500 48.46300
H  50.67000 0.96800 48.07700
H  49.41000 1.70300 48.97200
H  49.82900 4.72000 44.44100
H  50.30900 3.07000 44.52700
H  52.39600 4.06600 44.59800
H  52.05000 4.35300 46.31600
H  51.79100 5.62600 45.15000
H  47.80500 8.50000 45.98500
H  46.42200 9.60500 46.65400
H  46.58100 9.11700 44.95800
H  41.44200 7.45600 45.67200
H  39.19800 7.59700 49.37400
H  38.01800 7.98300 48.14600
H  39.14800 9.16300 48.59300
Mg -5.36100 24.76000 27.02500
C  -3.64200 26.63800 29.43600
C  -6.40000 22.65900 29.54700
C  -6.94500 22.99100 24.73300
C  -4.07500 26.91800 24.56900
N  -5.09300 24.76200 29.22400
C  -4.33400 25.60400 30.03700
C  -4.64200 25.43000 31.57600
C  -5.37000 24.10100 31.51700
C  -5.66000 23.80300 29.98800
C  -4.43700 22.92100 32.05400
C  -5.65800 26.61300 31.90200
C  -5.45100 27.38800 33.27700
H  -4.92400 26.43700 34.32100
N  -6.35800 23.02700 27.11800
C  -6.68000 22.31300 28.19300
C  -7.48400 21.16300 27.87400
C  -7.81800 21.31800 26.51400
C  -6.97100 22.47200 26.02900
C  -7.92400 20.11100 28.82500
C  -8.85200 20.60400 25.66800
O  -9.21200 21.01500 24.55900
C  -9.41800 19.25800 26.12900
N  -5.43800 24.92500 24.91100
C  -6.26300 24.05500 24.23800
C  -6.35200 24.50400 22.78100
C  -5.50900 25.87000 22.72900
C  -5.01000 25.97700 24.14600
C  -5.90500 23.33400 21.83500
C  -6.23300 27.10700 22.22100
C  -5.47900 27.85000 21.07400
N  -4.10000 26.41500 26.99800
C  -3.63700 27.19900 25.89500
C  -2.75500 28.21500 26.34700
C  -2.74300 28.01700 27.73800
C  -3.53100 26.89000 28.05100
C  -2.03600 29.28900 25.59600
C  -2.22900 28.50400 28.97800
O  -1.46700 29.40000 29.25600
C  -2.89200 27.68300 30.12000
C  -1.83900 27.24500 31.07200
O  -0.96900 26.39800 30.89000
O  -2.04600 27.91300 32.21100
C  -1.18400 27.58800 33.32800
H  -6.90800 22.00000 30.25400
H  -7.48200 22.35700 24.02300
H  -3.70300 27.64900 23.84800
H  -3.68500 25.58900 32.07200
H  -6.31300 24.16400 32.05900
H  -3.44500 23.27200 32.33900
H  -4.33700 22.17800 31.26300
H  -4.99100 22.51200 32.89900
H  -6.69800 26.29000 31.93800
H  -5.59700 27.30300 31.06000
H  -6.41300 27.65600 33.71400
H  -4.98200 28.36000 33.12200
H  -9.00400 20.22200 28.93100
H  -7.47900 20.25200 29.80900
H  -7.70000 19.10000 28.48600
H  -9.79600 18.88600 25.17700
H  -10.18200 19.34000 26.90300
H  -8.70400 18.49400 26.43600
H  -7.35300 24.74000 22.42000
H  -4.63900 25.71000 22.09200
H  -6.65200 23.29700 21.04200
H  -5.78500 22.37600 22.34100
H  -5.04100 23.62000 21.23400
H  -6.46800 27.83800 22.99400
H  -7.10900 26.70500 21.71000
H  -4.60800 27.27900 20.75200
H  -5.00600 28.76500 21.43000
H  -6.13000 28.01900 20.21600
H  -2.85300 29.97800 25.38000
H  -1.55300 28.80400 24.74800
H  -1.32200 29.82700 26.21800
H  -3.47700 28.43300 30.65400
H  -0.13900 27.68100 33.03100
H  -1.23800 26.56800 33.71000
H  -1.41700 28.31200 34.10900


