%nproc=24
%mem=175gb
#p cam-b3lyp/Def2SVP td=(nstates=5) density=(transition=1)

TDDFT excited states in gaussian

0 1
Mg 17.05400 -2.28800 27.75000
C  16.54800 -0.35400 30.72600
C  18.85200 -4.52900 29.65700
C  18.01300 -3.67000 24.94900
C  15.39200 0.22200 26.03300
N  17.88600 -2.27700 29.96200
C  17.41200 -1.43700 30.93300
C  17.78200 -2.00100 32.33100
C  18.58500 -3.32700 31.99600
C  18.48400 -3.42400 30.43000
C  20.10200 -3.41100 32.45300
C  16.57800 -2.28600 33.26800
C  16.68400 -1.85000 34.68600
H  18.05300 -1.52300 35.39600
N  18.30500 -3.91800 27.31000
C  18.85900 -4.81900 28.21900
C  19.64100 -5.82500 27.47500
C  19.29300 -5.63200 26.08300
C  18.51600 -4.37100 26.05800
C  20.53100 -6.87100 28.07500
C  19.63900 -6.46300 24.82500
O  19.04500 -6.38400 23.72900
C  20.63000 -7.54600 24.97700
N  16.79100 -1.75400 25.84400
C  17.37300 -2.49900 24.84200
C  16.84500 -2.07000 23.44500
C  15.70300 -1.04100 23.86200
C  15.95300 -0.84300 25.34700
C  17.88000 -1.47900 22.40300
C  14.26500 -1.46100 23.60200
C  13.50200 -0.61900 22.55800
N  15.98100 -0.53800 28.25500
C  15.38600 0.39400 27.43800
C  14.87800 1.51400 28.24100
C  15.27300 1.20700 29.53100
C  15.93800 -0.03900 29.49700
C  14.17200 2.75100 27.79300
C  15.18900 1.69900 30.85900
O  14.57400 2.68200 31.36200
C  15.98100 0.75800 31.66400
C  17.01200 1.50300 32.46800
O  17.97500 2.03100 32.02700
O  16.72000 1.42300 33.76600
C  17.36800 2.29700 34.68400
H  19.44500 -5.28100 30.18200
H  18.21500 -4.04600 23.94300
H  14.94000 1.04300 25.47400
H  18.42200 -1.24900 32.79400
H  18.07000 -4.18900 32.41900
H  20.43900 -2.60400 33.10300
H  20.70600 -3.31100 31.55000
H  20.31100 -4.38200 32.90300
H  16.34900 -3.34900 33.35200
H  15.66000 -1.80400 32.93300
H  16.30900 -2.63700 35.34100
H  16.04900 -0.97200 34.80100
H  21.52400 -6.79800 27.63200
H  20.09600 -7.83300 27.80400
H  20.47400 -6.87000 29.16400
H  21.57900 -7.08500 25.25100
H  20.75500 -7.96300 23.97800
H  20.26200 -8.35300 25.61000
H  16.37000 -2.96000 23.03100
H  15.88800 -0.12500 23.30100
H  18.88000 -1.46500 22.83500
H  17.57100 -0.51800 21.99000
H  17.86400 -2.13300 21.53100
H  13.63500 -1.61600 24.47800
H  14.30700 -2.45900 23.16700
H  12.47900 -0.33500 22.80400
H  13.29800 -1.28100 21.71600
H  13.99200 0.30400 22.25100
H  13.75500 2.65600 26.79000
H  14.88900 3.56000 27.65400
H  13.49700 3.03000 28.60200
H  15.27200 0.27100 32.33300
H  16.91900 3.28000 34.53500
H  18.41700 2.43200 34.42000
H  17.17400 2.00000 35.71500
Mg -9.05100 41.13500 42.30500
C  -8.30500 37.72200 41.48700
C  -6.39500 41.95900 40.06300
C  -10.13500 44.30600 42.06300
C  -11.94600 40.07300 43.78400
N  -7.59700 39.95400 40.94500
C  -7.46300 38.60400 40.80000
C  -6.30700 38.23500 39.80600
C  -5.51300 39.62600 39.73200
C  -6.60000 40.57800 40.20500
C  -4.30400 39.71300 40.63500
C  -6.79900 37.60800 38.51200
C  -6.03200 36.37000 37.97900
H  -4.96500 36.51100 36.79600
N  -8.29800 42.98100 41.27000
C  -7.13300 43.08000 40.48100
C  -6.94700 44.48300 40.09100
C  -8.03900 45.19400 40.72800
C  -8.91000 44.19100 41.30200
C  -5.89600 45.03300 39.20200
C  -8.19100 46.69400 40.76500
O  -7.26900 47.37100 40.36900
C  -9.41600 47.41600 41.27700
N  -10.80500 41.95700 42.74100
C  -10.93600 43.34200 42.69200
C  -12.32300 43.68900 43.23800
C  -12.78500 42.37500 43.96800
C  -11.75000 41.40700 43.50300
C  -12.48200 45.00600 44.08300
C  -14.25700 41.90100 43.76600
C  -15.09300 41.67300 44.98300
N  -9.92100 39.32400 42.71000
C  -11.08300 39.02100 43.39800
C  -11.16100 37.57500 43.68200
C  -10.08800 37.04400 42.86600
C  -9.41700 38.14200 42.31900
C  -12.14700 36.79800 44.51400
C  -9.42300 35.76800 42.46900
O  -9.72600 34.63000 42.68900
C  -8.33800 36.19100 41.48400
C  -7.03500 35.63000 41.97000
O  -6.57500 36.04000 43.01400
O  -6.38300 34.71100 41.09400
C  -4.99400 34.30500 41.46700
H  -5.55800 42.25300 39.42600
H  -10.61600 45.28500 42.09600
H  -12.77900 39.78900 44.43000
H  -5.57300 37.57400 40.26600
H  -5.28500 39.90000 38.70200
H  -4.64500 39.94800 41.64300
H  -3.63900 40.46300 40.20700
H  -3.69100 38.82300 40.78100
H  -6.68900 38.37600 37.74700
H  -7.87800 37.47800 38.59500
H  -6.83500 35.70800 37.65400
H  -5.48300 35.83500 38.75400
H  -5.12500 45.43600 39.85800
H  -6.29100 45.90400 38.67900
H  -5.42500 44.40000 38.44900
H  -9.41600 48.49600 41.13100
H  -9.43700 47.22500 42.35000
H  -10.40300 47.09200 40.94900
H  -12.86200 43.92500 42.32000
H  -12.52900 42.46800 45.02300
H  -11.51700 45.33200 44.47200
H  -13.22300 44.86700 44.87000
H  -12.90400 45.79900 43.46600
H  -14.25100 40.98200 43.18000
H  -14.72900 42.61100 43.08700
H  -15.22400 40.60100 45.12900
H  -16.08000 42.11100 44.83500
H  -14.72100 42.06100 45.93100
H  -11.73100 35.83800 44.81900
H  -13.03600 36.66900 43.89600
H  -12.46300 37.43800 45.33800
H  -8.66000 35.87700 40.49100
H  -5.04200 33.54700 42.24900
H  -4.44500 35.14400 41.89400
H  -4.44900 33.94400 40.59500


