%nproc=24
%mem=175gb
#p cam-b3lyp/Def2SVP td=(nstates=5) density=(transition=1)

TDDFT excited states in gaussian

0 1
Mg 46.63400 24.73200 28.52400
C  47.16600 26.79400 31.26900
C  45.35000 22.41900 30.76700
C  46.57500 22.51000 25.95000
C  48.10800 27.10900 26.49100
N  46.35100 24.60700 30.77200
C  46.60600 25.59200 31.71400
C  46.32600 25.14000 33.20100
C  46.05100 23.60400 32.96700
C  45.94200 23.50100 31.40100
C  47.03100 22.54000 33.47000
C  45.17300 25.95500 33.81500
C  45.53600 26.98000 34.85700
H  44.55500 27.15400 36.03000
N  45.88000 22.81500 28.28900
C  45.34100 22.11500 29.32300
C  44.95500 20.80900 28.75400
C  45.37600 20.75700 27.41600
C  45.95000 22.01600 27.13800
C  44.14400 19.85300 29.53100
C  45.30700 19.63400 26.42300
O  45.62600 19.75900 25.20800
C  44.90700 18.30200 26.75200
N  47.16200 24.82000 26.54200
C  47.02200 23.79200 25.66100
C  47.50000 24.11000 24.29900
C  47.94400 25.61100 24.43200
C  47.78600 25.82800 25.89000
C  48.58100 23.27100 23.55600
C  47.18600 26.64400 23.46000
C  45.80900 27.28400 23.80700
N  47.51200 26.55300 28.75500
C  48.03300 27.42300 27.84100
C  48.30100 28.65400 28.44600
C  48.04200 28.39000 29.84600
C  47.54000 27.10900 29.96100
C  48.74800 29.95300 27.77800
C  47.98400 29.05500 31.11600
O  48.14900 30.19900 31.48800
C  47.61900 27.93100 32.14800
C  48.80500 27.58900 32.95800
O  49.43200 26.50700 32.93800
O  49.23500 28.58100 33.76800
C  50.27600 28.29000 34.81200
H  45.00700 21.67200 31.48500
H  46.61700 21.83300 25.09400
H  48.42100 27.96800 25.89300
H  47.24300 25.06200 33.78600
H  45.06600 23.41800 33.39500
H  47.53600 22.06600 32.62800
H  46.41900 21.72900 33.86200
H  47.76900 22.88500 34.19500
H  44.55000 25.22000 34.32600
H  44.58000 26.37000 33.00000
H  45.61600 27.94300 34.35200
H  46.51600 26.85600 35.31800
H  43.21600 19.75600 28.96900
H  43.90200 20.07100 30.57200
H  44.63900 18.88200 29.54400
H  45.42400 18.07100 27.68300
H  45.01300 17.64200 25.89200
H  43.86100 18.27000 27.05700
H  46.55600 24.02200 23.76200
H  49.01300 25.68800 24.23700
H  48.17600 22.76600 22.67900
H  48.97300 22.47900 24.19500
H  49.46000 23.85000 23.27300
H  47.00900 26.03100 22.57600
H  47.98400 27.36400 23.27800
H  45.45700 27.11300 24.82400
H  45.01200 27.13000 23.07900
H  45.99000 28.35100 23.68400
H  49.68100 30.32800 28.20000
H  47.99600 30.71000 28.00000
H  48.80300 29.90800 26.69000
H  46.94500 28.37300 32.88200
H  50.12900 29.19800 35.39700
H  51.29200 28.18100 34.43400
H  50.01200 27.37900 35.35000
Mg 9.20000 47.36600 24.88000
C  7.02600 47.76900 27.74700
C  11.57000 48.44700 26.79100
C  10.94600 47.19300 22.09000
C  6.29100 46.96700 22.73800
N  9.27600 47.92100 27.10800
C  8.32000 48.03400 28.09600
C  8.93500 48.52700 29.35600
C  10.25500 49.18700 28.88100
C  10.38000 48.52600 27.48800
C  10.19000 50.72500 28.75600
C  9.27100 47.32000 30.28400
C  8.91000 47.48600 31.81100
H  8.76300 46.21000 32.73200
N  11.12300 47.75000 24.52700
C  11.99300 48.08000 25.44400
C  13.30700 48.11300 24.83000
C  13.09300 47.62600 23.51900
C  11.67000 47.53200 23.33600
C  14.56100 48.44000 25.66100
C  14.15200 47.33300 22.49300
O  13.84400 46.95300 21.40300
C  15.59100 47.42400 22.88400
N  8.59400 47.38800 22.62900
C  9.59400 47.15300 21.78200
C  9.10700 46.72400 20.44900
C  7.56400 46.85800 20.64800
C  7.41500 47.09900 22.12700
C  9.70100 47.44000 19.18300
C  6.80800 45.57800 20.11700
C  6.00900 45.65200 18.78600
N  7.17400 47.35700 25.08600
C  6.10400 47.11400 24.19600
C  4.83100 47.11900 24.94600
C  5.17200 47.34400 26.27300
C  6.54300 47.52700 26.33600
C  3.42100 47.05000 24.31100
C  4.55900 47.48400 27.63300
O  3.43200 47.38700 28.05800
C  5.73500 47.94200 28.63300
C  5.68600 47.23700 29.86100
O  6.32700 46.19300 30.04600
O  4.84600 47.74900 30.84500
C  4.90400 47.16700 32.22100
H  12.46500 48.75400 27.33500
H  11.53100 47.07200 21.17600
H  5.40800 46.83900 22.11000
H  8.32300 49.32300 29.78100
H  11.13800 49.00400 29.49300
H  10.92100 51.19300 29.41600
H  9.18200 51.02300 29.04300
H  10.33700 51.10600 27.74500
H  10.35100 47.19900 30.19800
H  8.78700 46.45500 29.83100
H  8.00100 48.08400 31.87000
H  9.74500 48.08400 32.17800
H  15.18900 47.54900 25.70000
H  14.38200 48.83100 26.66200
H  15.20000 49.13500 25.11700
H  15.85600 46.71400 23.66700
H  15.91500 48.35300 23.35300
H  16.20400 47.15000 22.02500
H  9.34100 45.66500 20.34000
H  7.22100 47.78300 20.18400
H  10.49600 48.09000 19.54700
H  9.00000 47.94700 18.51900
H  10.12400 46.67900 18.52700
H  6.07000 45.27200 20.85900
H  7.53000 44.76900 20.22800
H  6.23700 44.78300 18.16900
H  6.25500 46.57800 18.26600
H  4.93600 45.62800 18.98000
H  3.49200 46.43400 23.41500
H  3.14200 48.04200 23.95500
H  2.68000 46.64400 25.00000
H  5.61100 49.00700 28.82700
H  5.88500 47.32300 32.67200
H  4.47300 46.16700 32.25100
H  4.32200 47.83100 32.86000


