%nproc=24
%mem=175gb
#p cam-b3lyp/Def2SVP td=(nstates=5)

TDDFT excited states in gaussian

0 1
Mg 53.43000 23.68000 44.03900
C  50.60500 25.72200 43.59200
C  51.43200 20.92900 43.52700
C  56.21400 21.92200 43.71600
C  55.42100 26.61100 44.29000
N  51.34600 23.39300 43.36500
C  50.33600 24.38200 43.24300
C  48.97800 23.81200 43.21200
C  49.26700 22.25100 43.29300
C  50.77800 22.16700 43.44100
C  48.41400 21.54400 44.37400
C  48.22300 24.06100 41.94200
C  49.03400 24.02900 40.63800
H  48.41800 23.46200 39.30000
N  53.81600 21.66600 43.70400
C  52.86000 20.71900 43.65000
C  53.50000 19.42800 43.60900
C  54.89000 19.67000 43.73700
C  55.04900 21.13300 43.75700
C  52.80700 18.10400 43.43000
C  55.97700 18.59900 43.82300
O  55.69800 17.41700 43.77300
C  57.46200 18.80800 43.85800
N  55.50100 24.20200 43.75000
C  56.49500 23.26200 43.68900
C  57.90500 23.90500 43.90100
C  57.59200 25.42600 43.76600
C  56.09200 25.42600 43.96400
C  58.57700 23.60200 45.26200
C  57.80600 26.06200 42.31200
C  58.53500 27.35500 42.24600
N  53.14400 25.68200 44.06800
C  53.99400 26.67600 44.35900
C  53.22600 27.91400 44.76200
C  51.87400 27.51900 44.50800
C  51.89200 26.20900 43.95100
C  53.71800 29.26500 45.26100
C  50.53800 28.03700 44.44100
O  50.10500 29.15300 44.68100
C  49.65300 26.85900 43.86500
C  49.16300 27.30200 42.50200
O  49.80500 27.46200 41.51700
O  47.78800 27.38800 42.55400
C  47.15600 27.52600 41.23800
H  50.76800 20.06300 43.56200
H  57.13800 21.34600 43.78900
H  56.08600 27.44900 44.50900
H  48.42400 24.23500 44.05000
H  49.15700 21.69500 42.36200
H  48.03700 20.69600 43.80200
H  47.64400 22.25100 44.68300
H  49.00900 21.15600 45.20100
H  47.55300 24.92000 41.98700
H  47.44900 23.32600 41.72000
H  49.94100 23.47800 40.88900
H  49.32900 25.07300 40.53100
H  53.31800 17.49200 42.68600
H  51.75400 18.26600 43.20000
H  52.89400 17.62800 44.40700
H  57.89700 19.23300 42.95400
H  57.81600 17.77700 43.85100
H  57.81900 19.19500 44.81300
H  58.56100 23.52900 43.11600
H  58.08000 26.03800 44.52500
H  58.61900 24.52500 45.84000
H  59.48300 23.00800 45.14300
H  57.92700 22.93400 45.82600
H  56.85800 26.15700 41.78300
H  58.38300 25.30400 41.78200
H  59.40900 27.31900 41.59600
H  58.83900 27.73400 43.22200
H  57.92000 28.14400 41.81400
H  53.34500 30.00700 44.55500
H  54.79200 29.18400 45.43300
H  53.17000 29.44900 46.18500
H  48.82700 26.60000 44.52700
H  47.72400 27.04800 40.44000
H  47.12200 28.60500 41.08700
H  46.11800 27.22500 41.37700
Mg 8.73000 48.00700 24.72600
C  6.54700 48.35400 27.54300
C  11.38500 48.83200 26.74200
C  10.78900 48.16000 22.05300
C  5.85600 48.14800 22.68600
N  8.91100 48.51400 26.88400
C  7.92400 48.53400 27.88200
C  8.57600 48.79800 29.21500
C  9.96600 49.43600 28.79200
C  10.09000 48.94100 27.32100
C  9.83300 50.99700 28.89900
C  8.62100 47.55100 30.16700
C  8.25400 47.92900 31.51300
H  7.91700 46.69900 32.49700
N  10.84000 48.27700 24.55100
C  11.74400 48.56500 25.49500
C  13.05300 48.54500 24.91800
C  12.92300 48.37200 23.55600
C  11.42000 48.19500 23.29600
C  14.33000 48.90700 25.74100
C  14.02400 48.24600 22.48300
O  13.70400 48.13100 21.32700
C  15.48100 48.17400 22.87500
N  8.33400 48.41200 22.66100
C  9.38600 48.28200 21.76100
C  8.87500 48.15200 20.36300
C  7.28100 48.12500 20.55900
C  7.12600 48.16700 22.06100
C  9.40100 49.20400 19.44600
C  6.46300 46.89200 19.88400
C  5.44500 47.20900 18.86100
N  6.61400 48.15800 24.98900
C  5.61400 48.20500 24.04400
C  4.27700 48.23000 24.78200
C  4.59000 48.17400 26.15500
C  6.02700 48.18500 26.22900
C  2.90700 48.32700 24.09700
C  3.98700 48.26800 27.45000
O  2.78100 48.32100 27.78100
C  5.21700 48.56000 28.40400
C  5.00500 47.63900 29.64300
O  5.64000 46.57500 29.76100
O  4.15000 48.22900 30.51400
C  3.80400 47.24100 31.59300
H  12.25300 48.87100 27.40400
H  11.43600 48.18800 21.17300
H  4.90900 48.09600 22.14500
H  8.00400 49.60800 29.66700
H  10.77600 49.10700 29.44200
H  9.23900 51.44000 28.10000
H  10.83100 51.43100 28.94300
H  9.35800 51.24300 29.84900
H  9.67300 47.28200 30.26500
H  8.05700 46.70900 29.76500
H  7.29600 48.44900 31.52800
H  9.07600 48.51700 31.92200
H  14.96900 48.03700 25.59000
H  14.16900 49.02000 26.81300
H  14.74800 49.84700 25.38100
H  16.11600 48.17200 21.98900
H  15.42200 47.21200 23.38400
H  15.69700 49.01800 23.53000
H  9.23500 47.16500 20.07200
H  6.89900 49.04100 20.10900
H  10.07700 48.66800 18.78100
H  10.03800 49.93000 19.95100
H  8.64800 49.76300 18.89000
H  5.91200 46.49600 20.73700
H  7.19200 46.14700 19.56800
H  4.44900 46.91600 19.19200
H  5.77800 46.47600 18.12700
H  5.55100 48.21100 18.44300
H  2.66500 49.38900 24.07600
H  2.13000 47.78700 24.63800
H  2.97200 47.86900 23.11000
H  5.09400 49.61500 28.64500
H  3.12300 46.44700 31.28700
H  3.39400 47.68200 32.50100
H  4.75700 46.82700 31.92300


