%nproc=24
%mem=175gb
#p cam-b3lyp/Def2SVP td=(nstates=5)

TDDFT excited states in gaussian

0 1
Mg 26.07000 0.32300 29.17500
C  27.93000 0.00300 32.17200
C  23.23700 0.37300 31.22200
C  24.20000 0.73500 26.50800
C  28.89900 -0.55900 27.35600
N  25.68800 0.23300 31.42600
C  26.58700 0.25300 32.44900
C  25.99300 0.25100 33.86800
C  24.43500 0.24800 33.45400
C  24.48700 0.27000 31.95500
C  23.63400 -1.02300 33.94300
C  26.39900 1.50900 34.70300
C  27.30600 1.47800 35.92700
H  27.07500 2.41400 37.10600
N  24.00400 0.60600 28.87400
C  22.98600 0.52400 29.83500
C  21.72400 0.61300 29.13500
C  21.97300 0.88000 27.79100
C  23.44300 0.80400 27.68300
C  20.46800 0.64800 29.93700
C  21.02800 1.08200 26.60700
O  21.39200 1.28100 25.44400
C  19.58500 1.18400 26.91000
N  26.42900 0.02500 27.20000
C  25.57000 0.46200 26.23000
C  26.30100 0.60400 24.85200
C  27.70600 0.10100 25.15700
C  27.68000 -0.24400 26.67200
C  25.55900 -0.10800 23.67400
C  28.73300 1.18300 24.79000
C  29.96300 0.77300 24.06500
N  28.00500 -0.28200 29.61000
C  29.05600 -0.58000 28.78000
C  30.24500 -0.86800 29.52500
C  29.92400 -0.56000 30.93700
C  28.52000 -0.19800 30.89800
C  31.58600 -1.33700 28.93500
C  30.40700 -0.48700 32.33900
O  31.55800 -0.58600 32.79700
C  29.11500 -0.11100 33.17500
C  29.05800 -1.28400 34.10300
O  28.53100 -2.37500 33.92200
O  29.56000 -0.97800 35.26800
C  29.75400 -2.03800 36.28700
H  22.46700 0.52900 31.98000
H  23.69600 0.81600 25.54300
H  29.79300 -0.76400 26.76400
H  26.26300 -0.69600 34.33700
H  23.82700 1.11200 33.72400
H  24.21800 -1.88400 34.26700
H  22.99700 -1.39000 33.13900
H  22.99100 -0.72400 34.77100
H  25.46900 1.94600 35.06700
H  26.90100 2.23700 34.06700
H  28.23400 1.84700 35.49000
H  27.27900 0.42100 36.19200
H  19.92700 1.58400 29.80500
H  20.67800 0.53600 31.00100
H  19.76300 -0.13800 29.66800
H  19.43300 1.90200 27.71600
H  19.18900 0.27500 27.36300
H  18.97400 1.53500 26.07900
H  26.25300 1.68100 24.69200
H  27.96600 -0.74800 24.52500
H  24.56100 -0.46700 23.92500
H  26.08600 -0.97800 23.28400
H  25.56500 0.53500 22.79400
H  29.00400 1.58600 25.76500
H  28.34900 1.97700 24.15000
H  30.78000 1.14300 24.68400
H  29.93300 1.13400 23.03700
H  30.14200 -0.30200 24.03500
H  31.60000 -2.42600 28.91000
H  32.38900 -0.93100 29.55000
H  31.71700 -1.01400 27.90200
H  29.35100 0.80400 33.71800
H  28.83300 -2.53300 36.59300
H  30.27100 -1.70300 37.18600
H  30.41000 -2.86500 36.01700
Mg -9.05100 41.13500 42.30500
C  -8.30500 37.72200 41.48700
C  -6.39500 41.95900 40.06300
C  -10.13500 44.30600 42.06300
C  -11.94600 40.07300 43.78400
N  -7.59700 39.95400 40.94500
C  -7.46300 38.60400 40.80000
C  -6.30700 38.23500 39.80600
C  -5.51300 39.62600 39.73200
C  -6.60000 40.57800 40.20500
C  -4.30400 39.71300 40.63500
C  -6.79900 37.60800 38.51200
C  -6.03200 36.37000 37.97900
H  -4.96500 36.51100 36.79600
N  -8.29800 42.98100 41.27000
C  -7.13300 43.08000 40.48100
C  -6.94700 44.48300 40.09100
C  -8.03900 45.19400 40.72800
C  -8.91000 44.19100 41.30200
C  -5.89600 45.03300 39.20200
C  -8.19100 46.69400 40.76500
O  -7.26900 47.37100 40.36900
C  -9.41600 47.41600 41.27700
N  -10.80500 41.95700 42.74100
C  -10.93600 43.34200 42.69200
C  -12.32300 43.68900 43.23800
C  -12.78500 42.37500 43.96800
C  -11.75000 41.40700 43.50300
C  -12.48200 45.00600 44.08300
C  -14.25700 41.90100 43.76600
C  -15.09300 41.67300 44.98300
N  -9.92100 39.32400 42.71000
C  -11.08300 39.02100 43.39800
C  -11.16100 37.57500 43.68200
C  -10.08800 37.04400 42.86600
C  -9.41700 38.14200 42.31900
C  -12.14700 36.79800 44.51400
C  -9.42300 35.76800 42.46900
O  -9.72600 34.63000 42.68900
C  -8.33800 36.19100 41.48400
C  -7.03500 35.63000 41.97000
O  -6.57500 36.04000 43.01400
O  -6.38300 34.71100 41.09400
C  -4.99400 34.30500 41.46700
H  -5.55800 42.25300 39.42600
H  -10.61600 45.28500 42.09600
H  -12.77900 39.78900 44.43000
H  -5.57300 37.57400 40.26600
H  -5.28500 39.90000 38.70200
H  -4.64500 39.94800 41.64300
H  -3.63900 40.46300 40.20700
H  -3.69100 38.82300 40.78100
H  -6.68900 38.37600 37.74700
H  -7.87800 37.47800 38.59500
H  -6.83500 35.70800 37.65400
H  -5.48300 35.83500 38.75400
H  -5.12500 45.43600 39.85800
H  -6.29100 45.90400 38.67900
H  -5.42500 44.40000 38.44900
H  -9.41600 48.49600 41.13100
H  -9.43700 47.22500 42.35000
H  -10.40300 47.09200 40.94900
H  -12.86200 43.92500 42.32000
H  -12.52900 42.46800 45.02300
H  -11.51700 45.33200 44.47200
H  -13.22300 44.86700 44.87000
H  -12.90400 45.79900 43.46600
H  -14.25100 40.98200 43.18000
H  -14.72900 42.61100 43.08700
H  -15.22400 40.60100 45.12900
H  -16.08000 42.11100 44.83500
H  -14.72100 42.06100 45.93100
H  -11.73100 35.83800 44.81900
H  -13.03600 36.66900 43.89600
H  -12.46300 37.43800 45.33800
H  -8.66000 35.87700 40.49100
H  -5.04200 33.54700 42.24900
H  -4.44500 35.14400 41.89400
H  -4.44900 33.94400 40.59500


