%nproc=24
%mem=175gb
#p cam-b3lyp/Def2SVP td=(nstates=5) density=(transition=1)

TDDFT excited states in gaussian

0 1
Mg 52.53200 24.27200 45.27800
C  49.69500 26.14500 43.97100
C  51.04500 21.43900 44.03200
C  55.55800 22.86200 45.08400
C  53.78600 27.15600 46.56500
N  50.65200 23.90000 43.94600
C  49.60000 24.82500 43.60600
C  48.41500 24.05300 43.01900
C  48.70000 22.56700 43.38700
C  50.22600 22.57000 43.84000
C  47.76900 22.00700 44.56400
C  48.04400 24.34300 41.59400
C  49.09500 25.06000 40.71400
H  48.96900 25.39700 39.21700
N  53.20200 22.33000 44.76700
C  52.42300 21.31600 44.25500
C  53.27600 20.09300 44.13100
C  54.57100 20.56600 44.32700
C  54.53600 21.98000 44.69300
C  52.68600 18.78600 43.73500
C  55.85700 19.70500 44.16100
O  55.72900 18.56500 43.75100
C  57.24900 20.21900 44.32400
N  54.40600 25.03400 45.62800
C  55.48900 24.15600 45.60300
C  56.74800 24.82300 46.15700
C  56.16900 26.07400 46.91200
C  54.72900 26.07700 46.39400
C  57.69100 23.98800 47.06100
C  56.92500 27.42300 46.68900
C  57.79700 27.94700 47.92000
N  51.87600 26.25900 45.36900
C  52.48600 27.32200 46.01900
C  51.58600 28.44900 46.02500
C  50.55800 28.02100 45.17400
C  50.79100 26.66600 44.83200
C  51.91200 29.79900 46.68700
C  49.30500 28.37700 44.58200
O  48.71800 29.46600 44.74300
C  48.58400 27.14400 43.87700
C  48.23600 27.64400 42.53200
O  48.98500 28.23500 41.74700
O  46.97500 27.21700 42.27700
C  46.32700 27.76200 41.04300
H  50.57900 20.54200 43.62000
H  56.53800 22.38300 45.02800
H  54.16100 28.03300 47.09600
H  47.65100 24.44400 43.69100
H  48.71700 21.90900 42.51800
H  47.15300 21.26400 44.05900
H  47.21300 22.83200 45.01000
H  48.44700 21.51600 45.26300
H  47.08700 24.86300 41.63300
H  47.84600 23.33500 41.22800
H  49.99900 24.46000 40.82300
H  49.29400 26.05200 41.12000
H  53.06600 18.57900 42.73500
H  51.60100 18.88400 43.75400
H  52.95100 18.03100 44.47600
H  57.60500 20.97300 43.62300
H  58.00300 19.45100 44.15400
H  57.23000 20.50700 45.37500
H  57.21200 25.04800 45.19600
H  56.15200 25.77400 47.96000
H  58.56700 23.60300 46.53800
H  57.16500 23.10200 47.41500
H  57.94800 24.60600 47.92200
H  56.28400 28.25100 46.38500
H  57.54500 27.23200 45.81300
H  58.71300 28.26700 47.42400
H  58.01300 27.19900 48.68300
H  57.20100 28.70700 48.42400
H  51.05000 30.36300 47.04400
H  52.35800 30.33200 45.84800
H  52.47600 29.64100 47.60600
H  47.71400 26.85200 44.46700
H  45.32600 27.34000 40.94700
H  46.88700 27.48700 40.14900
H  46.32300 28.83200 41.24600
Mg 7.14200 57.54600 41.51700
C  6.28900 54.20700 41.28700
C  10.28800 56.72100 40.38900
C  7.81200 60.89700 41.16900
C  3.94100 58.30400 42.53200
N  8.10000 55.73200 40.72500
C  7.55000 54.46800 40.80800
C  8.51900 53.39300 40.32300
C  9.88500 54.17400 40.37000
C  9.39700 55.61300 40.45200
C  10.94100 53.73800 41.48400
C  8.18100 52.71900 38.95500
C  8.31100 51.21100 38.91500
H  9.48100 50.75900 38.05500
N  8.80400 58.60500 40.85800
C  9.98200 58.10200 40.47200
C  10.93200 59.16600 40.19700
C  10.33500 60.40200 40.38100
C  8.90800 60.02900 40.77200
C  12.41400 58.88100 39.65800
C  11.01900 61.80700 40.27800
O  12.22600 61.86700 39.90900
C  10.28000 63.06100 40.55000
N  5.92900 59.42300 41.58100
C  6.46000 60.62400 41.57700
C  5.53200 61.67900 42.14200
C  4.20400 60.94400 42.52900
C  4.70000 59.43900 42.28400
C  6.08200 62.75400 43.13300
C  2.88100 61.24800 41.76800
C  1.64800 60.78800 42.51800
N  5.41300 56.46200 41.84200
C  4.16700 56.89800 42.34900
C  3.34900 55.73600 42.56600
C  4.13900 54.62000 42.19700
C  5.33900 55.15600 41.73800
C  2.01600 55.69000 43.29800
C  4.11700 53.24300 42.14700
O  3.28800 52.39200 42.32200
C  5.50100 52.88200 41.39400
C  5.07100 52.59100 39.95700
O  4.83200 53.42500 39.10500
O  4.99200 51.21300 39.83600
C  4.48800 50.71300 38.56100
H  11.34700 56.50800 40.23000
H  8.09700 61.94400 41.04900
H  2.94700 58.37800 42.97800
H  8.57300 52.63000 41.09900
H  10.29300 54.14500 39.35900
H  11.53300 54.64700 41.59000
H  11.67500 53.00700 41.14400
H  10.53800 53.39000 42.43500
H  8.89800 53.17500 38.27200
H  7.26400 53.03800 38.46000
H  7.37100 50.81600 38.52900
H  8.48000 50.78000 39.90200
H  12.65000 57.83100 39.48000
H  13.15600 59.27900 40.35100
H  12.59000 59.28000 38.66000
H  9.90800 63.04900 41.57400
H  9.55300 63.27700 39.76700
H  11.06400 63.81300 40.63000
H  5.09100 62.35700 41.41100
H  4.06100 60.88100 43.60800
H  7.16900 62.67900 43.08000
H  5.65900 62.68700 44.13600
H  5.85900 63.78200 42.84700
H  2.99200 60.79700 40.78200
H  2.91000 62.32500 41.60300
H  0.83700 61.47100 42.26400
H  1.73700 60.78400 43.60500
H  1.32700 59.82700 42.11600
H  1.67100 54.68100 43.52400
H  1.28900 56.22800 42.69100
H  2.06800 56.22200 44.24800
H  6.04900 52.10100 41.92200
H  3.44600 51.01000 38.44100
H  4.61600 49.63500 38.46900
H  5.02300 51.19800 37.74500


