%nproc=24
%mem=175gb
#p cam-b3lyp/Def2SVP td=(nstates=5) density=(transition=1)

TDDFT excited states in gaussian

0 1
Mg -2.17200 16.97900 26.95200
C  -2.72400 15.15000 29.85500
C  -3.03700 19.79700 28.58300
C  -2.39300 18.59300 23.98800
C  -2.09700 13.93400 25.14200
N  -2.70100 17.33200 28.98300
C  -2.73500 16.51500 30.09200
C  -3.14200 17.32600 31.35300
C  -3.73400 18.61600 30.70600
C  -3.02700 18.64900 29.35900
C  -5.29100 18.59800 30.51100
C  -1.92300 17.38000 32.29200
C  -2.24700 17.17600 33.72300
H  -1.11900 16.77000 34.55900
N  -2.42900 18.95600 26.42700
C  -2.71700 19.97700 27.27500
C  -2.49100 21.22100 26.58300
C  -2.29300 20.85800 25.20200
C  -2.45300 19.40200 25.14600
C  -2.60700 22.55600 27.22700
C  -2.12700 21.73600 23.91900
O  -1.95600 21.25500 22.79700
C  -2.02300 23.23300 24.00700
N  -2.58000 16.29000 24.86100
C  -2.48200 17.22200 23.79200
C  -2.41100 16.57800 22.44700
C  -2.09800 15.11800 22.91000
C  -2.20000 15.11800 24.43300
C  -3.71000 16.74000 21.58700
C  -0.67500 14.61400 22.47000
C  0.50900 15.54800 22.82800
N  -2.25800 14.94800 27.37500
C  -2.16300 13.82100 26.54400
C  -2.25500 12.68900 27.38800
C  -2.44400 13.17700 28.67500
C  -2.44900 14.53100 28.60300
C  -2.11400 11.26600 26.95000
C  -2.70100 12.78200 29.98000
O  -2.81800 11.63600 30.45100
C  -2.89700 14.02900 30.89400
C  -1.76000 13.88300 31.95300
O  -0.54300 14.00600 31.72700
O  -2.34900 13.58900 33.17800
C  -1.46500 13.15200 34.30500
H  -3.42500 20.61700 29.19100
H  -2.30900 18.94200 22.95600
H  -1.87100 12.97600 24.66900
H  -3.88000 16.77500 31.93500
H  -3.40400 19.48400 31.27600
H  -5.81600 17.73100 30.91300
H  -5.54300 18.53800 29.45300
H  -5.71700 19.45700 31.02900
H  -1.55900 18.40500 32.23700
H  -1.19600 16.65200 31.93100
H  -2.95800 16.35000 33.74700
H  -2.76300 18.06300 34.09000
H  -2.53500 22.48300 28.31200
H  -3.46700 23.06800 26.79400
H  -1.74500 23.16300 26.95000
H  -2.35600 23.58400 23.03000
H  -0.98600 23.54300 24.13800
H  -2.68700 23.64600 24.76700
H  -1.57800 16.92500 21.83400
H  -2.85900 14.45200 22.50200
H  -4.54500 16.97100 22.24900
H  -4.01900 15.87700 20.99700
H  -3.69300 17.53600 20.84200
H  -0.75400 14.40000 21.40400
H  -0.59800 13.63700 22.94700
H  1.24700 15.06400 23.46800
H  0.07900 16.42200 23.31800
H  1.05200 15.89400 21.94900
H  -3.02600 10.76600 27.27600
H  -1.20700 10.86800 27.40500
H  -2.07500 11.10900 25.87200
H  -3.86000 13.93400 31.39500
H  -0.97000 12.24300 33.96400
H  -1.93600 12.93200 35.26300
H  -0.82600 14.03500 34.31800
Mg 0.26000 43.34200 24.75600
C  2.25300 43.09900 27.61800
C  -2.44200 42.42000 26.69400
C  -1.57400 42.87700 21.91500
C  3.14600 43.60500 22.86000
N  -0.01100 42.92700 26.88700
C  0.88400 43.10000 27.86800
C  0.29200 43.09400 29.28500
C  -1.20300 42.68500 28.99500
C  -1.29800 42.75900 27.37000
C  -1.68200 41.32300 29.54200
C  0.44600 44.41100 30.04600
C  0.46000 44.23200 31.57500
H  0.30000 42.82500 32.16800
N  -1.74500 42.84700 24.34000
C  -2.74500 42.55800 25.29700
C  -3.99500 42.34000 24.59700
C  -3.74800 42.40500 23.17500
C  -2.33100 42.75300 23.08200
C  -5.28700 42.18000 25.35000
C  -4.75800 42.32200 21.94400
O  -4.44000 42.53400 20.79900
C  -6.18400 41.93600 22.27200
N  0.72800 43.16000 22.71000
C  -0.18900 43.01100 21.71100
C  0.47200 43.04900 20.28400
C  1.92800 43.34600 20.63900
C  1.92700 43.36400 22.15600
C  0.26000 41.87700 19.24300
C  2.38800 44.69400 20.03600
C  2.04300 46.00200 20.78200
N  2.32100 43.50900 25.09100
C  3.38200 43.61100 24.22900
C  4.61600 43.69300 24.93600
C  4.22700 43.48400 26.33500
C  2.89200 43.36300 26.33900
C  5.99200 43.88800 24.47400
C  4.71200 43.25500 27.68900
O  5.85600 43.34100 28.14800
C  3.47500 43.00100 28.60000
C  3.56600 41.71300 29.28000
O  3.33400 40.61600 28.78300
O  4.17100 41.89000 30.49900
C  4.75700 40.73100 31.20000
H  -3.23100 42.10200 27.37900
H  -2.18100 42.91300 21.00800
H  4.04900 43.78500 22.27300
H  0.67700 42.26400 29.87700
H  -1.92300 43.45600 29.26700
H  -2.57300 41.63600 30.08600
H  -0.94100 40.89700 30.21800
H  -1.87200 40.62800 28.72400
H  -0.32500 45.13200 29.77700
H  1.38300 44.89600 29.77100
H  -0.37400 44.87500 31.85700
H  1.32100 44.72000 32.03400
H  -5.00100 42.06900 26.39600
H  -5.81000 41.30000 24.97500
H  -5.96200 43.02800 25.22500
H  -6.37400 40.88800 22.50600
H  -6.81500 42.27400 21.45000
H  -6.38700 42.55900 23.14300
H  -0.03500 43.91100 19.85100
H  2.51500 42.52100 20.23700
H  1.17400 41.51200 18.77600
H  -0.34600 42.26100 18.42300
H  -0.30900 41.09200 19.74200
H  1.97300 44.71300 19.02900
H  3.46900 44.59400 19.93400
H  1.75200 46.69500 19.99300
H  2.89700 46.44600 21.29300
H  1.29400 45.88900 21.56500
H  6.47500 44.58100 25.16200
H  6.09900 44.26000 23.45500
H  6.57000 42.97800 24.63600
H  3.48200 43.84300 29.29200
H  4.58400 39.79600 30.66600
H  4.26600 40.64900 32.17000
H  5.80700 41.02000 31.22900


