%nproc=24
%mem=175gb
#p cam-b3lyp/Def2SVP td=(nstates=5)

TDDFT excited states in gaussian

0 1
Mg 16.41100 52.36700 25.56600
C  18.01800 50.88800 28.30000
C  13.92400 53.47100 27.63400
C  14.78500 53.43800 22.89200
C  18.97700 50.98900 23.49400
N  16.01700 52.13900 27.73500
C  16.81400 51.56600 28.70100
C  16.31600 51.93200 30.08700
C  14.87100 52.50500 29.80500
C  15.00600 52.79900 28.27200
C  13.75200 51.51700 30.10900
C  17.38000 52.82700 30.82100
C  16.86600 53.42500 32.16000
H  15.83800 52.61100 32.91800
N  14.67300 53.30500 25.31300
C  13.70900 53.59600 26.27000
C  12.51400 54.21500 25.67000
C  12.80900 54.23100 24.27200
C  14.13200 53.63200 24.11700
C  11.36800 54.71200 26.46900
C  11.91000 54.75300 23.18100
O  12.26900 54.77100 21.97100
C  10.56700 55.35400 23.49600
N  16.86500 52.27500 23.47100
C  15.99700 52.81000 22.61200
C  16.44300 52.50800 21.11400
C  17.81800 51.65600 21.31000
C  17.89300 51.61900 22.83700
C  15.27500 51.72000 20.39100
C  19.11700 52.36100 20.72800
C  19.40800 52.10700 19.22100
N  18.08500 51.15100 25.76500
C  19.11600 50.75400 24.87300
C  20.19800 50.00100 25.64600
C  19.78200 49.96200 26.97300
C  18.52400 50.75100 27.00100
C  21.48500 49.44800 25.11900
C  20.10700 49.55500 28.32000
O  21.06000 48.92400 28.78800
C  19.05800 50.30100 29.28500
C  18.45300 49.37700 30.31700
O  17.48000 48.69900 30.12500
O  19.02600 49.59100 31.59100
C  18.26600 49.12100 32.75900
H  13.19300 53.70900 28.41000
H  14.23600 53.78000 22.01200
H  19.73200 50.45400 22.91400
H  16.24800 51.01000 30.66300
H  14.63800 53.45400 30.28900
H  13.10300 52.02100 30.82500
H  14.20000 50.58000 30.43900
H  13.06200 51.39100 29.27500
H  17.73700 53.44800 30.00000
H  18.21600 52.16100 31.03200
H  16.46200 54.39100 31.85700
H  17.72400 53.56200 32.81800
H  10.55700 54.06200 26.14100
H  11.17100 55.77400 26.32500
H  11.38200 54.60100 27.55400
H  10.71400 56.25300 24.09300
H  10.12800 54.49800 24.01000
H  9.92000 55.56900 22.64600
H  16.62800 53.52500 20.76600
H  17.77900 50.58400 21.11200
H  14.41400 51.50600 21.02400
H  15.64500 50.76000 20.03000
H  14.90700 52.39400 19.61800
H  19.98300 52.23400 21.37700
H  18.92400 53.43100 20.79800
H  19.48300 53.08600 18.74900
H  18.62700 51.45900 18.82300
H  20.36100 51.60000 19.06800
H  22.27100 50.10500 25.49200
H  21.46400 49.41600 24.02900
H  21.78400 48.45300 25.44800
H  19.61000 51.11500 29.75400
H  18.44700 48.04700 32.79300
H  17.22900 49.45300 32.70500
H  18.68800 49.63700 33.62100
Mg 9.20100 48.63300 24.80700
C  7.00600 48.65300 27.54500
C  11.64200 49.94100 26.66500
C  11.05000 48.61100 22.15100
C  6.24200 48.21900 22.76700
N  9.22500 49.31100 26.85200
C  8.33600 49.09200 27.82900
C  8.78900 49.67200 29.14400
C  10.10600 50.44700 28.73700
C  10.36100 49.87000 27.35800
C  10.08400 52.01000 28.74700
C  9.14700 48.49500 30.18800
C  8.51500 48.70500 31.60300
H  8.63500 47.36700 32.51500
N  11.09800 48.95000 24.52400
C  12.00800 49.46400 25.43200
C  13.32900 49.31600 24.88600
C  13.24200 48.87600 23.50200
C  11.75200 48.67100 23.33700
C  14.54800 49.78900 25.72900
C  14.23500 48.59100 22.38100
O  13.96800 48.12400 21.25900
C  15.64500 48.82300 22.79500
N  8.62300 48.59400 22.78300
C  9.67100 48.60700 21.89600
C  9.16600 48.63700 20.45300
C  7.69000 48.19700 20.63800
C  7.46000 48.39900 22.13700
C  9.46200 50.04800 19.80600
C  7.33800 46.72100 20.17100
C  5.87200 46.44300 19.80200
N  7.05000 48.42700 25.05400
C  6.04600 48.27100 24.14700
C  4.77900 48.04000 24.80400
C  5.15700 48.11700 26.15700
C  6.52300 48.41500 26.26400
C  3.35900 47.77300 24.25400
C  4.63600 47.99600 27.49000
O  3.59000 47.60400 27.93700
C  5.82500 48.51800 28.45200
C  5.77300 47.51400 29.51800
O  6.28400 46.36600 29.55000
O  5.03000 48.07600 30.48700
C  4.75700 47.29300 31.69300
H  12.47200 50.28300 27.28700
H  11.67900 48.52800 21.26200
H  5.39900 48.00100 22.10800
H  8.05900 50.30600 29.64800
H  11.00500 50.19100 29.29800
H  10.13500 52.34800 27.71200
H  10.98900 52.30100 29.28000
H  9.22300 52.51800 29.18000
H  10.20800 48.27500 30.31200
H  8.82700 47.56600 29.71600
H  7.46000 48.96400 31.51600
H  9.00400 49.45600 32.22300
H  14.89000 48.94400 26.32500
H  14.28100 50.45800 26.54800
H  15.30300 50.38600 25.21800
H  15.98500 48.19800 23.62000
H  15.64000 49.89000 23.02100
H  16.36500 48.70300 21.98500
H  9.75900 47.88800 19.92800
H  7.04700 48.83900 20.03600
H  8.53800 50.61700 19.70400
H  9.90700 50.08500 18.81200
H  10.06100 50.74200 20.39600
H  7.49400 46.14100 21.08100
H  7.92900 46.29300 19.36100
H  5.39900 45.74600 20.49500
H  5.63800 46.05100 18.81200
H  5.34900 47.38100 19.98300
H  3.34300 48.21100 23.25600
H  2.59900 48.22600 24.89200
H  3.25800 46.69000 24.18400
H  5.55100 49.48200 28.88100
H  5.30400 47.73800 32.52400
H  4.92100 46.22700 31.53900
H  3.71000 47.43600 31.96000


