%nproc=24
%mem=175gb
#p cam-b3lyp/Def2SVP td=(nstates=5) density=(transition=1)

TDDFT excited states in gaussian

0 1
Mg 35.66000 1.74600 29.23200
C  33.47200 2.34100 31.89500
C  38.12100 1.24100 31.62500
C  37.79000 1.61500 26.77900
C  33.01700 2.53400 27.01000
N  35.87600 2.18500 31.54100
C  34.82500 2.24700 32.36500
C  35.34000 2.18200 33.76400
C  36.88000 2.27300 33.63100
C  37.00600 1.84600 32.18200
C  37.59500 3.59000 33.93800
C  34.89600 0.87200 34.48900
C  34.26200 0.97200 35.91400
H  34.68800 2.14100 36.85600
N  37.69800 1.31100 29.19900
C  38.45500 0.95400 30.30700
C  39.74800 0.60100 29.81800
C  39.73600 0.82500 28.38300
C  38.39000 1.25600 28.03600
C  40.94400 0.20000 30.70900
C  40.89400 0.72300 27.34900
O  40.78100 0.94900 26.18600
C  42.22500 0.23800 27.88900
N  35.39600 2.02600 27.20700
C  36.47200 1.98000 26.39000
C  36.13800 2.22700 24.89300
C  34.55100 2.25100 24.96900
C  34.26500 2.24500 26.46600
C  36.85300 3.59900 24.36100
C  33.86400 1.14100 24.11300
C  33.41700 -0.12600 24.82000
N  33.60700 2.29400 29.34300
C  32.66300 2.48800 28.37100
C  31.34700 2.76700 29.04600
C  31.64200 2.71200 30.42700
C  33.04500 2.46100 30.58700
C  30.05700 3.20300 28.40600
C  31.07900 2.83900 31.76900
O  29.91300 3.09600 32.08200
C  32.20100 2.44500 32.72500
C  32.26400 3.54000 33.75100
O  32.77700 4.63100 33.58200
O  31.49900 3.13900 34.75300
C  31.03100 4.13600 35.70300
H  38.92600 1.22300 32.36200
H  38.44500 1.39800 25.93300
H  32.19900 2.76200 26.32300
H  34.93300 3.02400 34.32300
H  37.28500 1.57100 34.36000
H  36.96900 4.41100 34.28800
H  38.13600 3.93900 33.05800
H  38.32400 3.36100 34.71500
H  35.66700 0.10200 34.50700
H  34.14500 0.53000 33.77700
H  34.54900 0.03000 36.38300
H  33.17800 1.00900 35.80900
H  41.84000 0.79100 30.51900
H  41.29800 -0.80900 30.49700
H  40.73900 0.22800 31.78000
H  42.13800 -0.68600 28.46100
H  42.66900 1.05000 28.46500
H  42.94900 0.14100 27.08000
H  36.48000 1.41700 24.24900
H  34.11700 3.15500 24.54200
H  36.02900 4.30300 24.24400
H  37.25500 3.51600 23.35100
H  37.53000 4.05700 25.08300
H  34.65800 0.79900 23.44900
H  33.05000 1.52900 23.50100
H  34.25200 -0.36700 25.47900
H  33.30700 -0.80900 23.97800
H  32.56000 -0.11800 25.49300
H  30.04900 3.41600 27.33700
H  29.71100 4.11800 28.88700
H  29.33300 2.43700 28.68200
H  31.98900 1.57300 33.34400
H  31.22900 5.19300 35.52800
H  31.60100 3.89200 36.60000
H  30.07700 3.79700 36.10700
Mg -9.42700 40.51200 41.96000
C  -8.27600 37.27100 41.01300
C  -7.18900 41.70700 39.82100
C  -11.06300 43.46900 41.99400
C  -12.24300 38.82400 43.34600
N  -7.88600 39.63200 40.71800
C  -7.50800 38.28500 40.52900
C  -6.30600 38.11700 39.54700
C  -5.96100 39.60100 39.23600
C  -7.01600 40.39000 40.04000
C  -4.48700 39.82100 39.61500
C  -6.54600 37.26600 38.22600
C  -5.77300 35.95800 38.10300
H  -4.88600 35.77200 36.85500
N  -9.14300 42.33400 41.14400
C  -8.11800 42.62800 40.24500
C  -8.09400 44.00500 39.95700
C  -9.10700 44.61100 40.67700
C  -9.83500 43.52300 41.29800
C  -7.10100 44.80200 39.03200
C  -9.33100 46.10500 40.68600
O  -8.59600 46.89800 40.17700
C  -10.57800 46.61100 41.56500
N  -11.40100 41.07400 42.51100
C  -11.80600 42.38000 42.46200
C  -13.34000 42.40200 42.85400
C  -13.69600 41.00800 43.39700
C  -12.37200 40.22400 43.05500
C  -13.75900 43.56700 43.70500
C  -14.84900 40.42700 42.58800
C  -15.68100 39.35600 43.24200
N  -10.03000 38.45700 42.37900
C  -11.16900 37.95500 42.96200
C  -11.08800 36.54300 43.06100
C  -9.91600 36.15600 42.36900
C  -9.38800 37.38300 41.87700
C  -12.09900 35.62000 43.61300
C  -9.03800 35.08300 41.88300
O  -9.11400 33.86600 42.09900
C  -7.91300 35.74600 40.99900
C  -6.65000 35.63000 41.67800
O  -6.37600 36.35300 42.66500
O  -5.96400 34.63500 41.08200
C  -4.53900 34.42700 41.45900
H  -6.43900 42.13800 39.15400
H  -11.53000 44.45500 42.04300
H  -13.01900 38.25900 43.86600
H  -5.46700 37.65700 40.06900
H  -6.10300 39.87100 38.19000
H  -4.30300 40.89300 39.55000
H  -3.75300 39.31500 38.98800
H  -4.26800 39.50000 40.63400
H  -6.11700 37.88500 37.43800
H  -7.61400 37.12100 38.06300
H  -6.50000 35.14700 38.15800
H  -5.08700 35.86800 38.94600
H  -7.73100 45.35500 38.33500
H  -6.44100 44.13800 38.47400
H  -6.37700 45.43500 39.54500
H  -10.52000 47.69900 41.55500
H  -10.39300 46.15100 42.53600
H  -11.42100 46.18000 41.02500
H  -13.83700 42.54600 41.89400
H  -13.95800 40.94300 44.45300
H  -14.59900 43.25300 44.32400
H  -14.03900 44.35800 43.00900
H  -12.95300 44.01500 44.28500
H  -14.53800 40.03800 41.61800
H  -15.54600 41.19600 42.25500
H  -15.47900 39.25300 44.30800
H  -15.45200 38.41100 42.74900
H  -16.73600 39.48600 43.00100
H  -12.69800 36.09600 44.39000
H  -11.53400 34.78400 44.02600
H  -12.74800 35.36800 42.77400
H  -7.89000 35.41100 39.96200
H  -4.47300 33.34300 41.35500
H  -4.28400 34.79600 42.45200
H  -3.86400 34.76500 40.67200


