%nproc=24
%mem=175gb
#p cam-b3lyp/Def2SVP td=(nstates=5)

TDDFT excited states in gaussian

0 1
Mg 3.63500 0.41800 44.38500
C  6.38200 2.41600 44.15700
C  1.85600 2.91600 42.76500
C  1.03400 -1.70200 44.27100
C  5.65900 -2.27700 45.39800
N  4.15300 2.34100 43.32400
C  5.35700 2.93700 43.43600
C  5.44100 4.20100 42.66100
C  3.82600 4.53100 42.53700
C  3.19500 3.17000 42.89900
C  3.38200 5.72400 43.43400
C  6.08500 3.93300 41.31000
C  5.45900 2.81500 40.35400
H  5.36900 3.04800 38.85100
N  1.72200 0.57100 43.63100
C  1.11700 1.74400 43.11300
C  -0.27500 1.47100 42.97900
C  -0.55500 0.16000 43.34400
C  0.72000 -0.40500 43.81700
C  -1.17200 2.58100 42.47000
C  -1.87000 -0.57100 43.21500
O  -2.81800 0.09700 42.73200
C  -2.07300 -1.97000 43.39000
N  3.45400 -1.75300 44.57800
C  2.23500 -2.36400 44.54600
C  2.35900 -3.87900 44.83600
C  3.87500 -4.03200 45.19700
C  4.39100 -2.62000 44.97700
C  1.41200 -4.36800 45.91100
C  4.59000 -5.14900 44.26500
C  5.56000 -6.06500 45.02000
N  5.66900 0.04500 44.75000
C  6.32000 -0.99300 45.33600
C  7.63200 -0.52000 45.68500
C  7.75100 0.85800 45.29200
C  6.52700 1.13100 44.70400
C  8.77000 -1.38000 46.11700
C  8.57600 2.01500 45.15500
O  9.73800 2.10000 45.57200
C  7.71800 3.05600 44.46000
C  7.61900 4.24800 45.33700
O  8.63700 4.80700 45.69500
O  6.34700 4.66100 45.59200
C  6.23700 5.85100 46.43800
H  1.24500 3.78600 42.51600
H  0.13600 -2.29700 44.44900
H  6.31200 -3.00800 45.88000
H  6.00100 5.03200 43.09000
H  3.58600 4.93100 41.55100
H  2.93500 6.50500 42.82000
H  4.28700 6.13300 43.88400
H  2.70200 5.45700 44.24400
H  7.14700 3.76700 41.49200
H  6.12500 4.93200 40.87600
H  4.43400 2.52000 40.57900
H  6.17000 1.99900 40.48000
H  -1.10900 2.52700 41.38300
H  -0.76100 3.53900 42.78600
H  -2.21500 2.54500 42.78600
H  -2.88500 -2.34300 42.76500
H  -2.15000 -2.27300 44.43500
H  -1.20000 -2.43300 42.93200
H  2.14200 -4.33200 43.86800
H  3.97500 -4.21900 46.26600
H  0.70500 -3.61400 46.25600
H  1.77700 -4.91000 46.78300
H  0.73700 -5.01500 45.35000
H  5.15900 -4.73200 43.43400
H  3.86400 -5.76700 43.73700
H  5.09600 -7.04700 45.10800
H  5.65500 -5.69200 46.04000
H  6.52700 -6.16100 44.52600
H  8.71100 -1.83500 47.10500
H  9.65100 -0.74100 46.04600
H  8.91100 -2.23600 45.45700
H  8.25000 3.32500 43.54700
H  6.78900 6.65600 45.95200
H  6.55900 5.68400 47.46600
H  5.19100 6.09800 46.61900
Mg 46.35100 44.49200 43.30700
C  43.07600 43.62000 43.02100
C  47.22500 41.16500 42.48500
C  49.41300 45.58500 42.54300
C  45.37900 47.95800 43.59800
N  45.25500 42.66900 42.85200
C  43.97900 42.48600 42.76800
C  43.57300 40.97200 42.67800
C  44.93400 40.18700 42.80300
C  45.92900 41.39700 42.74700
C  45.03400 39.17700 43.94700
C  42.68400 40.64700 41.33600
C  42.79700 41.58100 40.14200
H  42.36600 41.11900 38.75000
N  48.07200 43.49800 42.60100
C  48.26200 42.15300 42.39300
C  49.56000 41.92800 41.92400
C  50.24000 43.20600 41.88200
C  49.22200 44.19700 42.32000
C  50.08500 40.51700 41.73200
C  51.70300 43.39300 41.44100
O  52.34200 42.37400 41.09500
C  52.40800 44.64100 41.38700
N  47.26200 46.56500 42.93800
C  48.55900 46.63600 42.83800
C  49.10000 48.08900 42.96000
C  47.81700 48.85400 43.35200
C  46.67900 47.75500 43.33200
C  50.17200 48.26600 43.97400
C  47.52200 50.10400 42.39600
C  47.68100 51.53700 43.05200
N  44.63200 45.62300 43.43200
C  44.35200 46.98700 43.58200
C  42.86900 47.16200 43.67400
C  42.37400 45.87600 43.41500
C  43.46600 44.97500 43.24000
C  42.10000 48.37100 43.90000
C  41.16700 45.21000 43.23100
O  39.97800 45.55600 43.29100
C  41.54900 43.71200 43.06200
C  40.81500 42.90200 44.15700
O  40.09100 41.93300 44.00400
O  41.06300 43.39200 45.42100
C  40.39300 42.73400 46.54900
H  47.39200 40.13000 42.18000
H  50.42700 45.98200 42.46400
H  45.10600 48.98300 43.85700
H  43.05600 40.74200 43.61000
H  45.17500 39.63500 41.89400
H  45.78600 39.50800 44.66300
H  45.34200 38.19000 43.60000
H  44.10300 38.96300 44.47200
H  41.68100 40.58600 41.75900
H  42.91700 39.70400 40.84100
H  43.85800 41.82900 40.12800
H  42.26900 42.48700 40.44000
H  50.98600 40.19700 42.25600
H  50.18000 40.32500 40.66300
H  49.31900 39.81000 42.05000
H  52.54000 45.19200 42.31800
H  51.83700 45.37400 40.81800
H  53.35500 44.58600 40.85100
H  49.55600 48.55200 42.08500
H  47.80800 49.17400 44.39400
H  51.17700 48.38000 43.56800
H  50.31400 47.34900 44.54700
H  49.94700 49.11900 44.61400
H  46.47000 50.06600 42.11000
H  48.18600 50.18000 41.53600
H  48.24700 52.18400 42.38300
H  48.32000 51.43300 43.92900
H  46.66400 51.92200 43.12900
H  42.74600 48.98700 44.52600
H  41.17900 48.14600 44.43900
H  41.83000 48.74800 42.91400
H  41.05300 43.23500 42.21700
H  40.32500 43.44800 47.37000
H  40.87800 41.87000 47.00300
H  39.41700 42.31700 46.29900


