%nproc=24
%mem=175gb
#p cam-b3lyp/Def2SVP td=(nstates=5) density=(transition=1)

TDDFT excited states in gaussian

0 1
Mg 7.63600 56.80200 41.94500
C  6.62500 53.44600 41.38500
C  10.68100 55.97500 40.45800
C  8.03200 60.02500 41.40500
C  4.22800 57.38500 43.14900
N  8.45000 54.91300 40.78100
C  7.95700 53.66100 40.95000
C  8.99000 52.64800 40.49000
C  10.32900 53.33300 40.76400
C  9.81400 54.85400 40.60800
C  10.97600 53.14900 42.13800
C  8.68800 52.22300 38.98700
C  8.78600 50.76200 38.78500
H  9.47200 50.26400 37.49800
N  9.15000 57.91900 40.99500
C  10.37200 57.38400 40.51700
C  11.15700 58.50500 40.06500
C  10.49600 59.72000 40.38700
C  9.15900 59.29200 40.93300
C  12.51600 58.28800 39.40700
C  10.98000 61.08400 40.08900
O  12.05800 61.21700 39.52300
C  10.25300 62.36800 40.32000
N  6.19300 58.49600 42.17300
C  6.76600 59.71000 42.05200
C  5.81300 60.81300 42.54700
C  4.61500 59.97500 43.27000
C  5.02400 58.52600 42.89900
C  6.51300 61.95400 43.41400
C  3.16600 60.37300 42.84800
C  2.45300 59.49100 41.76700
N  5.85400 55.73100 42.22300
C  4.59600 56.10000 42.77900
C  3.77800 54.83100 43.01200
C  4.55200 53.84100 42.42800
C  5.79000 54.43400 41.99000
C  2.39800 54.58300 43.65100
C  4.62700 52.43800 42.17000
O  3.86200 51.52600 42.48800
C  5.87100 52.24300 41.37900
C  5.33600 51.93400 39.96200
O  4.91100 52.73800 39.13500
O  5.35200 50.52000 39.80700
C  4.79600 49.97200 38.63700
H  11.68700 55.76400 40.08900
H  8.33200 61.07300 41.34400
H  3.25200 57.43300 43.63500
H  9.01800 51.75000 41.10700
H  11.18700 53.14700 40.11900
H  10.60100 52.28700 42.68900
H  11.03000 54.09000 42.68600
H  12.00300 52.89400 41.87400
H  9.43500 52.68300 38.34000
H  7.77500 52.65300 38.57500
H  7.73900 50.46500 38.83400
H  9.33600 50.33800 39.62500
H  13.35000 58.53400 40.06400
H  12.53800 58.83400 38.46500
H  12.64500 57.23800 39.14400
H  10.18000 62.52800 41.39600
H  9.25600 62.43600 39.88300
H  10.86800 63.22900 40.06100
H  5.41300 61.22100 41.61900
H  4.75100 60.04000 44.34900
H  7.57600 62.02500 43.18400
H  6.34900 61.97700 44.49200
H  5.91600 62.83300 43.16600
H  3.09900 61.41000 42.52000
H  2.61700 60.24800 43.78100
H  1.86900 60.30400 41.33500
H  1.78000 58.70400 42.10800
H  3.21700 59.14200 41.07200
H  2.47400 53.89100 44.48900
H  1.98400 53.99700 42.83100
H  1.91500 55.55200 43.77500
H  6.40600 51.37000 41.75300
H  4.82800 48.88300 38.58500
H  5.36500 50.36200 37.79400
H  3.76000 50.31200 38.63400
Mg -5.09800 24.63300 26.68400
C  -3.70200 26.36700 29.52200
C  -6.11300 22.14300 28.93500
C  -6.48000 23.09600 24.13300
C  -3.72900 27.06700 24.58100
N  -4.87100 24.33000 29.01500
C  -4.47600 25.23800 29.94600
C  -4.87000 24.81900 31.35300
C  -5.34300 23.26900 31.18300
C  -5.42800 23.22100 29.63000
C  -4.42000 22.22500 31.86000
C  -5.97200 25.74300 31.97300
C  -5.56400 26.39400 33.32000
H  -6.48200 25.91600 34.58700
N  -6.12400 22.92100 26.55900
C  -6.45400 21.95500 27.56900
C  -7.23800 20.80800 27.05300
C  -7.37200 21.15200 25.66800
C  -6.65700 22.41400 25.41400
C  -7.70400 19.61500 27.89000
C  -8.01000 20.37100 24.58300
O  -8.30600 20.80000 23.47300
C  -8.47200 18.93600 24.90400
N  -5.23600 25.12700 24.71500
C  -5.84300 24.30800 23.82600
C  -5.57400 24.69000 22.39700
C  -4.73400 25.98700 22.49800
C  -4.58300 26.13300 24.02900
C  -4.97900 23.58700 21.54700
C  -5.55400 27.25800 21.86300
C  -4.76800 28.10300 20.72000
N  -3.71900 26.23300 26.92800
C  -3.33300 27.18000 25.94900
C  -2.55400 28.22500 26.62300
C  -2.81300 27.99000 27.99900
C  -3.40400 26.73200 28.12600
C  -1.71900 29.35800 26.03400
C  -2.39200 28.46300 29.34800
O  -1.66000 29.39300 29.78700
C  -3.08100 27.46800 30.36000
C  -2.03500 26.94900 31.30200
O  -0.94600 26.57900 30.96500
O  -2.47500 27.07900 32.59000
C  -1.38400 26.91100 33.58300
H  -6.28600 21.33800 29.65200
H  -6.91400 22.63300 23.24400
H  -3.32400 27.85900 23.94800
H  -3.94900 24.82500 31.93600
H  -6.36100 23.10200 31.53600
H  -3.94100 21.58900 31.11500
H  -4.98800 21.61200 32.56100
H  -3.64700 22.62700 32.51500
H  -6.89500 25.19600 32.16700
H  -6.22100 26.57200 31.31000
H  -5.77000 27.46400 33.35800
H  -4.50500 26.32600 33.56700
H  -7.71300 19.74200 28.97300
H  -7.20000 18.67100 27.68300
H  -8.74200 19.45800 27.59500
H  -7.62000 18.31700 25.18500
H  -9.03200 18.48700 24.08300
H  -9.15600 18.98900 25.75100
H  -6.53500 24.86100 21.91000
H  -3.75100 25.85800 22.04600
H  -5.68000 23.16900 20.82400
H  -4.66700 22.69800 22.09500
H  -4.09700 23.98900 21.04800
H  -5.86900 27.99500 22.60100
H  -6.48500 26.95600 21.38400
H  -4.00100 27.42900 20.33800
H  -4.32800 29.01700 21.12100
H  -5.40200 28.28200 19.85200
H  -1.71900 30.24300 26.67000
H  -2.23000 29.70200 25.13400
H  -0.77900 28.87000 25.77600
H  -3.74400 28.08300 30.96800
H  -0.90300 25.95500 33.37700
H  -1.91800 26.79500 34.52600
H  -0.58100 27.64700 33.62200


