%nproc=24
%mem=175gb
#p cam-b3lyp/Def2SVP td=(nstates=5) density=(transition=1)

TDDFT excited states in gaussian

0 1
Mg 25.26700 0.12000 29.48500
C  27.14100 -0.08700 32.36300
C  22.44200 0.65100 31.48400
C  23.33900 0.24400 26.71700
C  27.97000 -0.76800 27.63500
N  24.82700 -0.00300 31.72000
C  25.83000 0.13900 32.68700
C  25.26100 0.57400 34.05200
C  23.73000 0.68200 33.70700
C  23.61100 0.48500 32.21100
C  22.87000 -0.30200 34.49000
C  25.80700 1.87500 34.74000
C  26.64900 1.68700 36.11600
H  25.98700 2.43400 37.27800
N  23.21300 0.29800 29.14100
C  22.23900 0.64000 30.09300
C  20.97400 1.01400 29.45200
C  21.16000 0.82900 27.97700
C  22.63600 0.50000 27.85200
C  19.74900 1.44500 30.22800
C  20.23300 0.96600 26.86300
O  20.59800 0.66100 25.71800
C  18.79000 1.40700 27.03500
N  25.61300 -0.29200 27.55300
C  24.69700 -0.04800 26.51300
C  25.29200 -0.18000 25.05300
C  26.81800 -0.54700 25.43400
C  26.79800 -0.51500 26.97900
C  24.57500 -1.29000 24.13700
C  27.83300 0.46900 24.80600
C  29.13600 -0.06400 24.29800
N  27.18000 -0.44400 29.94400
C  28.21700 -0.73500 29.05300
C  29.45900 -0.85000 29.73800
C  29.08500 -0.49600 31.08700
C  27.69300 -0.34600 31.12700
C  30.82000 -1.11200 29.24500
C  29.58400 -0.41400 32.42400
O  30.70000 -0.50100 32.94800
C  28.28000 -0.28500 33.33500
C  28.18400 -1.48700 34.20500
O  27.52600 -2.44100 34.06000
O  28.92900 -1.30000 35.36700
C  28.48600 -2.07100 36.51000
H  21.58300 0.90400 32.10900
H  22.84400 0.32400 25.74700
H  28.87000 -0.90500 27.03200
H  25.38700 -0.24700 34.75700
H  23.31500 1.64400 34.00900
H  22.43700 -1.01900 33.79300
H  22.09100 0.33900 34.90100
H  23.35600 -0.79100 35.33400
H  24.95600 2.52500 34.94500
H  26.49900 2.40700 34.08700
H  27.58200 2.20000 35.88200
H  26.76100 0.62900 36.35200
H  19.34600 0.54600 30.69600
H  19.02800 1.84900 29.51900
H  19.97500 2.10600 31.06500
H  18.28300 1.10300 26.11900
H  18.67500 2.47500 27.22300
H  18.18400 0.86400 27.76000
H  25.32400 0.80000 24.57800
H  27.16700 -1.50900 25.05800
H  25.34100 -1.79600 23.54900
H  23.91500 -0.92500 23.35100
H  24.00900 -2.02000 24.71600
H  28.05800 1.32200 25.44600
H  27.45300 0.92700 23.89300
H  29.88300 0.35500 24.97200
H  29.54600 0.28700 23.35100
H  29.13600 -1.15300 24.35500
H  30.88400 -0.76300 28.21400
H  30.89900 -2.19900 29.25700
H  31.53400 -0.73600 29.97800
H  28.35300 0.59900 33.96800
H  28.85600 -3.07500 36.30500
H  27.39700 -2.05300 36.47000
H  28.92200 -1.70000 37.43800
Mg -2.33100 34.27800 27.06700
C  -3.29300 32.73500 29.99200
C  -0.77900 36.82100 29.04000
C  -1.68900 35.99300 24.34500
C  -4.00500 31.86100 25.19100
N  -2.10600 34.64700 29.26400
C  -2.54800 33.87100 30.25800
C  -2.04400 34.45500 31.61800
C  -1.35700 35.84600 31.23800
C  -1.46000 35.80800 29.70100
C  -2.07400 37.11000 31.67200
C  -1.16200 33.50400 32.44100
C  -1.65900 33.38600 33.87200
H  -0.69900 33.03500 35.01800
N  -1.29600 36.10900 26.75300
C  -0.70200 36.96400 27.63600
C  -0.06500 38.02800 26.99800
C  -0.40300 37.90700 25.60500
C  -1.15900 36.61100 25.50300
C  0.74500 39.09500 27.72000
C  -0.12100 38.87200 24.46500
O  -0.65300 38.65500 23.35900
C  0.65800 40.10800 24.66200
N  -2.76200 33.93100 25.11000
C  -2.33900 34.76200 24.09300
C  -2.78500 34.31300 22.65200
C  -3.27700 32.84000 22.98500
C  -3.37800 32.87200 24.52100
C  -3.86900 35.12000 21.83400
C  -2.50400 31.61000 22.32400
C  -1.18700 31.25300 22.96100
N  -3.52800 32.72900 27.43000
C  -4.16000 31.81100 26.61300
C  -4.85300 30.83200 27.34600
C  -4.49800 31.15000 28.66200
C  -3.68000 32.31700 28.68800
C  -5.57400 29.72900 26.69600
C  -4.80700 30.73800 29.97700
O  -5.59800 29.85900 30.32500
C  -4.00900 31.74000 30.96400
C  -4.95800 32.38400 31.85500
O  -5.73200 33.27000 31.57300
O  -4.95600 31.78800 33.04100
C  -5.91200 32.19500 34.02600
H  -0.35300 37.61900 29.65100
H  -1.55300 36.44800 23.36200
H  -4.51800 31.12700 24.56600
H  -2.99900 34.65700 32.10200
H  -0.41300 35.85600 31.78400
H  -2.94800 36.94200 32.30200
H  -2.45800 37.64200 30.80200
H  -1.35600 37.81800 32.08700
H  -0.10200 33.75800 32.45800
H  -1.18900 32.52900 31.95500
H  -2.34600 32.53900 33.87800
H  -2.14000 34.33700 34.10000
H  0.94800 38.81600 28.75400
H  0.13200 39.99100 27.82000
H  1.62000 39.38400 27.13900
H  0.44000 40.83300 23.87700
H  1.70900 39.83900 24.55200
H  0.43200 40.54800 25.63300
H  -1.93500 34.12600 21.99500
H  -4.26000 32.69700 22.53800
H  -4.17100 35.97400 22.43900
H  -4.79700 34.54700 21.82100
H  -3.62200 35.43900 20.82100
H  -2.25200 31.92600 21.31200
H  -3.11500 30.71700 22.19800
H  -1.06000 30.17800 22.83800
H  -0.96900 31.52500 23.99300
H  -0.42200 31.79500 22.40500
H  -5.20900 29.35700 25.73900
H  -6.66000 29.81200 26.67700
H  -5.43800 28.93700 27.43200
H  -3.30800 31.14200 31.54600
H  -5.54400 33.01100 34.64900
H  -6.05600 31.34600 34.69400
H  -6.83100 32.52000 33.53800


