%nproc=24
%mem=175gb
#p cam-b3lyp/Def2SVP td=(nstates=5)

TDDFT excited states in gaussian

0 1
Mg -9.05100 41.13500 42.30500
C  -8.30500 37.72200 41.48700
C  -6.39500 41.95900 40.06300
C  -10.13500 44.30600 42.06300
C  -11.94600 40.07300 43.78400
N  -7.59700 39.95400 40.94500
C  -7.46300 38.60400 40.80000
C  -6.30700 38.23500 39.80600
C  -5.51300 39.62600 39.73200
C  -6.60000 40.57800 40.20500
C  -4.30400 39.71300 40.63500
C  -6.79900 37.60800 38.51200
C  -6.03200 36.37000 37.97900
H  -4.96500 36.51100 36.79600
N  -8.29800 42.98100 41.27000
C  -7.13300 43.08000 40.48100
C  -6.94700 44.48300 40.09100
C  -8.03900 45.19400 40.72800
C  -8.91000 44.19100 41.30200
C  -5.89600 45.03300 39.20200
C  -8.19100 46.69400 40.76500
O  -7.26900 47.37100 40.36900
C  -9.41600 47.41600 41.27700
N  -10.80500 41.95700 42.74100
C  -10.93600 43.34200 42.69200
C  -12.32300 43.68900 43.23800
C  -12.78500 42.37500 43.96800
C  -11.75000 41.40700 43.50300
C  -12.48200 45.00600 44.08300
C  -14.25700 41.90100 43.76600
C  -15.09300 41.67300 44.98300
N  -9.92100 39.32400 42.71000
C  -11.08300 39.02100 43.39800
C  -11.16100 37.57500 43.68200
C  -10.08800 37.04400 42.86600
C  -9.41700 38.14200 42.31900
C  -12.14700 36.79800 44.51400
C  -9.42300 35.76800 42.46900
O  -9.72600 34.63000 42.68900
C  -8.33800 36.19100 41.48400
C  -7.03500 35.63000 41.97000
O  -6.57500 36.04000 43.01400
O  -6.38300 34.71100 41.09400
C  -4.99400 34.30500 41.46700
H  -5.55800 42.25300 39.42600
H  -10.61600 45.28500 42.09600
H  -12.77900 39.78900 44.43000
H  -5.57300 37.57400 40.26600
H  -5.28500 39.90000 38.70200
H  -4.64500 39.94800 41.64300
H  -3.63900 40.46300 40.20700
H  -3.69100 38.82300 40.78100
H  -6.68900 38.37600 37.74700
H  -7.87800 37.47800 38.59500
H  -6.83500 35.70800 37.65400
H  -5.48300 35.83500 38.75400
H  -5.12500 45.43600 39.85800
H  -6.29100 45.90400 38.67900
H  -5.42500 44.40000 38.44900
H  -9.41600 48.49600 41.13100
H  -9.43700 47.22500 42.35000
H  -10.40300 47.09200 40.94900
H  -12.86200 43.92500 42.32000
H  -12.52900 42.46800 45.02300
H  -11.51700 45.33200 44.47200
H  -13.22300 44.86700 44.87000
H  -12.90400 45.79900 43.46600
H  -14.25100 40.98200 43.18000
H  -14.72900 42.61100 43.08700
H  -15.22400 40.60100 45.12900
H  -16.08000 42.11100 44.83500
H  -14.72100 42.06100 45.93100
H  -11.73100 35.83800 44.81900
H  -13.03600 36.66900 43.89600
H  -12.46300 37.43800 45.33800
H  -8.66000 35.87700 40.49100
H  -5.04200 33.54700 42.24900
H  -4.44500 35.14400 41.89400
H  -4.44900 33.94400 40.59500
Mg -2.59000 34.01700 26.79400
C  -3.62000 32.41400 29.77300
C  -1.15300 36.45800 28.71900
C  -2.20600 35.82500 24.04600
C  -4.51700 31.70900 25.00200
N  -2.55200 34.47200 29.00300
C  -2.95200 33.59300 30.01300
C  -2.37700 34.05700 31.37400
C  -1.60200 35.37500 31.00700
C  -1.71600 35.46600 29.46000
C  -1.91400 36.61400 31.82800
C  -1.50900 33.04200 32.13400
C  -1.98900 32.76400 33.58500
H  -0.95800 32.99700 34.66700
N  -1.70200 35.86000 26.44900
C  -1.19200 36.74900 27.34900
C  -0.55100 37.80700 26.60500
C  -0.98500 37.71000 25.21400
C  -1.68000 36.43200 25.23200
C  0.22600 39.02700 27.32500
C  -1.03600 38.70200 24.13300
O  -1.40600 38.53400 23.00600
C  -0.57600 40.11000 24.49900
N  -3.46600 33.87800 24.82300
C  -3.08300 34.73100 23.85300
C  -3.52500 34.22200 22.47900
C  -3.92700 32.76700 22.76900
C  -3.94500 32.73700 24.28100
C  -4.74000 35.08300 21.90100
C  -2.77000 31.79500 22.20500
C  -1.44300 31.78800 23.01200
N  -3.75200 32.29300 27.19100
C  -4.44100 31.48200 26.37200
C  -5.05500 30.45500 27.17000
C  -4.72100 30.75200 28.47800
C  -3.96900 31.93000 28.47700
C  -5.92100 29.29000 26.73000
C  -4.97000 30.27500 29.84100
O  -5.63000 29.44100 30.39400
C  -4.20300 31.28400 30.73600
C  -5.22200 31.86200 31.64700
O  -6.22400 32.38000 31.22200
O  -4.94100 31.66200 32.98900
C  -6.05600 31.94700 33.95300
H  -0.52600 37.10900 29.33200
H  -2.00600 36.32000 23.09300
H  -4.95700 30.83400 24.51900
H  -3.20300 34.37600 32.01000
H  -0.55500 35.23200 31.27500
H  -2.84600 36.49700 32.37900
H  -1.95200 37.53200 31.24100
H  -1.13500 36.66900 32.58800
H  -0.45800 33.28400 32.29200
H  -1.47400 32.09100 31.60300
H  -2.46500 31.78700 33.66800
H  -2.77300 33.48500 33.81300
H  1.18600 39.15100 26.82400
H  0.47900 38.88500 28.37500
H  -0.26700 39.99700 27.38900
H  0.46900 39.96700 24.77500
H  -1.19700 40.39100 25.34900
H  -0.59300 40.82400 23.67500
H  -2.71600 34.17900 21.74900
H  -4.90200 32.39200 22.45700
H  -4.66500 35.04300 20.81400
H  -4.79700 36.14200 22.15500
H  -5.62600 34.53900 22.22800
H  -2.53100 31.98600 21.15900
H  -3.07000 30.75600 22.34200
H  -0.61000 31.26900 22.53900
H  -1.63900 31.28300 23.95800
H  -1.17900 32.82600 23.21700
H  -5.41600 28.57400 26.08200
H  -6.72000 29.76700 26.16300
H  -6.40800 28.78800 27.56600
H  -3.52700 30.64600 31.30500
H  -5.48500 32.48600 34.70900
H  -6.48400 31.04500 34.39000
H  -6.92400 32.52400 33.63500


