%nproc=24
%mem=175gb
#p cam-b3lyp/Def2SVP td=(nstates=5) density=(transition=1)

TDDFT excited states in gaussian

0 1
Mg 35.66000 1.74600 29.23200
C  33.47200 2.34100 31.89500
C  38.12100 1.24100 31.62500
C  37.79000 1.61500 26.77900
C  33.01700 2.53400 27.01000
N  35.87600 2.18500 31.54100
C  34.82500 2.24700 32.36500
C  35.34000 2.18200 33.76400
C  36.88000 2.27300 33.63100
C  37.00600 1.84600 32.18200
C  37.59500 3.59000 33.93800
C  34.89600 0.87200 34.48900
C  34.26200 0.97200 35.91400
H  34.68800 2.14100 36.85600
N  37.69800 1.31100 29.19900
C  38.45500 0.95400 30.30700
C  39.74800 0.60100 29.81800
C  39.73600 0.82500 28.38300
C  38.39000 1.25600 28.03600
C  40.94400 0.20000 30.70900
C  40.89400 0.72300 27.34900
O  40.78100 0.94900 26.18600
C  42.22500 0.23800 27.88900
N  35.39600 2.02600 27.20700
C  36.47200 1.98000 26.39000
C  36.13800 2.22700 24.89300
C  34.55100 2.25100 24.96900
C  34.26500 2.24500 26.46600
C  36.85300 3.59900 24.36100
C  33.86400 1.14100 24.11300
C  33.41700 -0.12600 24.82000
N  33.60700 2.29400 29.34300
C  32.66300 2.48800 28.37100
C  31.34700 2.76700 29.04600
C  31.64200 2.71200 30.42700
C  33.04500 2.46100 30.58700
C  30.05700 3.20300 28.40600
C  31.07900 2.83900 31.76900
O  29.91300 3.09600 32.08200
C  32.20100 2.44500 32.72500
C  32.26400 3.54000 33.75100
O  32.77700 4.63100 33.58200
O  31.49900 3.13900 34.75300
C  31.03100 4.13600 35.70300
H  38.92600 1.22300 32.36200
H  38.44500 1.39800 25.93300
H  32.19900 2.76200 26.32300
H  34.93300 3.02400 34.32300
H  37.28500 1.57100 34.36000
H  36.96900 4.41100 34.28800
H  38.13600 3.93900 33.05800
H  38.32400 3.36100 34.71500
H  35.66700 0.10200 34.50700
H  34.14500 0.53000 33.77700
H  34.54900 0.03000 36.38300
H  33.17800 1.00900 35.80900
H  41.84000 0.79100 30.51900
H  41.29800 -0.80900 30.49700
H  40.73900 0.22800 31.78000
H  42.13800 -0.68600 28.46100
H  42.66900 1.05000 28.46500
H  42.94900 0.14100 27.08000
H  36.48000 1.41700 24.24900
H  34.11700 3.15500 24.54200
H  36.02900 4.30300 24.24400
H  37.25500 3.51600 23.35100
H  37.53000 4.05700 25.08300
H  34.65800 0.79900 23.44900
H  33.05000 1.52900 23.50100
H  34.25200 -0.36700 25.47900
H  33.30700 -0.80900 23.97800
H  32.56000 -0.11800 25.49300
H  30.04900 3.41600 27.33700
H  29.71100 4.11800 28.88700
H  29.33300 2.43700 28.68200
H  31.98900 1.57300 33.34400
H  31.22900 5.19300 35.52800
H  31.60100 3.89200 36.60000
H  30.07700 3.79700 36.10700
Mg 46.81300 34.80600 27.83700
C  45.17600 32.79100 30.24000
C  46.71900 37.24900 30.02700
C  47.33800 36.80600 25.25700
C  46.11100 32.19400 25.53200
N  46.14800 34.85100 30.00200
C  45.62400 33.97200 30.77600
C  45.62400 34.45800 32.24000
C  45.67300 36.06300 32.08800
C  46.14500 36.09800 30.57500
C  44.31800 36.83800 32.33200
C  46.95000 33.94900 33.01300
C  46.90000 33.61900 34.54000
H  45.84300 34.41700 35.38900
N  47.21100 36.73800 27.68900
C  47.17400 37.59200 28.78100
C  47.54700 38.97300 28.31200
C  47.76600 38.81400 26.88000
C  47.45200 37.44200 26.47200
C  47.57300 40.14900 29.27000
C  48.24400 39.87200 25.91000
O  48.37500 39.70100 24.69000
C  48.62100 41.19700 26.43700
N  46.83600 34.49900 25.62400
C  47.04000 35.53300 24.82800
C  47.32500 35.03100 23.34300
C  46.87400 33.47700 23.48000
C  46.62500 33.36900 24.98200
C  46.58500 35.85900 22.24100
C  47.86700 32.37700 22.98000
C  47.46400 31.59700 21.75500
N  46.03500 32.76500 27.86100
C  45.83400 31.87700 26.82300
C  45.15900 30.73800 27.28800
C  44.84600 31.07700 28.61800
C  45.34900 32.31400 28.94500
C  44.79200 29.55000 26.55100
C  44.25600 30.51400 29.77000
O  43.77000 29.39300 30.08200
C  44.20600 31.72700 30.80400
C  44.55000 31.25500 32.16900
O  45.61400 30.77700 32.55700
O  43.43700 31.56400 33.01300
C  43.54100 31.17800 34.42600
H  46.79200 37.98600 30.83000
H  47.57400 37.46800 24.42200
H  45.97100 31.36600 24.83300
H  44.62300 34.28200 32.63300
H  46.32300 36.45800 32.86800
H  43.46200 36.16400 32.35700
H  44.09900 37.53000 31.51900
H  44.43400 37.33900 33.29300
H  47.78200 34.63400 32.84900
H  47.31500 33.05900 32.50000
H  47.84900 33.77500 35.05400
H  46.48500 32.61400 34.62600
H  48.46100 40.76800 29.13700
H  47.51700 39.85100 30.31700
H  46.63300 40.69500 29.19400
H  47.78800 41.66200 26.96500
H  48.94200 41.84200 25.61900
H  49.47200 41.20900 27.11800
H  48.38800 35.01100 23.10300
H  45.86800 33.30600 23.09400
H  45.91300 36.58500 22.69900
H  46.15500 35.05600 21.64200
H  47.35600 36.29200 21.60500
H  47.98100 31.65400 23.78800
H  48.84800 32.82300 22.81500
H  46.58600 32.13300 21.39700
H  47.14500 30.60700 22.08300
H  48.21600 31.60800 20.96700
H  45.69700 29.19600 26.05800
H  44.17700 29.70800 25.66500
H  44.42700 28.78900 27.24100
H  43.19600 32.13800 30.79400
H  42.60700 31.38000 34.95100
H  44.23500 31.85900 34.91900
H  43.73000 30.10700 34.49100


