%nproc=24
%mem=175gb
#p cam-b3lyp/Def2SVP td=(nstates=5)

TDDFT excited states in gaussian

0 1
Mg 8.82800 2.97900 28.39100
C  10.36500 1.60400 31.10700
C  7.59700 5.54500 30.49200
C  7.11400 4.23300 25.80200
C  10.13400 0.47400 26.43700
N  8.69300 3.35100 30.57800
C  9.52500 2.68500 31.48700
C  9.40600 3.27200 32.92200
C  8.46000 4.46400 32.61800
C  8.16100 4.43600 31.13000
C  7.12300 4.69600 33.44300
C  10.76000 3.72700 33.62500
C  10.50900 4.32800 35.03400
H  10.96800 3.41400 36.17100
N  7.54400 4.72800 28.17300
C  7.38800 5.73600 29.10000
C  6.47100 6.69300 28.49200
C  6.33200 6.29300 27.12400
C  7.02200 5.05300 26.95500
C  5.95900 7.85000 29.26000
C  5.41800 7.05100 26.09900
O  5.12000 6.60100 24.97400
C  4.78500 8.36300 26.48300
N  8.63500 2.44800 26.51900
C  7.83100 3.12600 25.56000
C  7.67200 2.29800 24.30500
C  8.94400 1.45600 24.38400
C  9.32300 1.47600 25.85800
C  6.36700 1.43300 24.30400
C  10.11600 2.06600 23.58300
C  10.22200 1.75100 22.11500
N  9.99100 1.29200 28.61900
C  10.57300 0.45400 27.74600
C  11.35400 -0.51100 28.46200
C  11.33200 -0.10700 29.78000
C  10.51600 1.03400 29.82700
C  12.08500 -1.61500 27.78100
C  11.82500 -0.42000 31.05300
O  12.58200 -1.29100 31.43600
C  11.20500 0.70900 32.00300
C  10.44000 0.02800 33.08200
O  9.42100 -0.60800 32.96400
O  10.93800 0.32100 34.28700
C  10.21200 -0.27100 35.47600
H  7.38800 6.37900 31.16500
H  6.56600 4.63400 24.94700
H  10.68600 -0.27500 25.86600
H  8.89500 2.54300 33.55100
H  9.00500 5.40000 32.74400
H  6.85500 5.73300 33.64700
H  7.10100 4.02900 34.30500
H  6.33500 4.37900 32.76000
H  11.20100 4.41000 32.90000
H  11.41200 2.85700 33.70200
H  9.47300 4.65600 35.11900
H  11.13500 5.21700 35.10500
H  4.89200 7.69700 29.42300
H  6.27900 8.73500 28.71000
H  6.46700 7.93200 30.22100
H  4.23800 8.77300 25.63400
H  5.63600 9.03200 26.61800
H  4.16200 8.37000 27.37700
H  7.64200 2.93000 23.41700
H  8.80000 0.42300 24.06800
H  6.45900 0.58300 24.97900
H  6.13800 1.09500 23.29300
H  5.57600 2.10700 24.63100
H  11.08800 1.85700 24.02800
H  10.10000 3.15100 23.68700
H  10.17300 2.70400 21.58900
H  9.27100 1.26300 21.90100
H  11.07000 1.12100 21.84600
H  13.12700 -1.33900 27.62400
H  11.63900 -2.06200 26.89200
H  12.10800 -2.42700 28.50800
H  12.02700 1.28100 32.43400
H  9.15600 -0.02800 35.35600
H  10.52300 0.16000 36.42800
H  10.37400 -1.34900 35.46000
Mg -5.21000 24.54100 27.19500
C  -3.54100 26.38400 29.69300
C  -6.38000 22.49900 29.72600
C  -6.78300 22.59100 24.87600
C  -3.73200 26.39300 24.81700
N  -5.00900 24.47500 29.48500
C  -4.39300 25.40300 30.31600
C  -4.77800 25.15700 31.76100
C  -5.38000 23.70500 31.74000
C  -5.61200 23.56800 30.25200
C  -4.48700 22.58300 32.40100
C  -5.82800 26.14800 32.28500
C  -5.66000 26.57200 33.74800
H  -5.92800 25.52000 34.86000
N  -6.48000 22.85300 27.28100
C  -6.76500 22.19100 28.42600
C  -7.52200 21.02600 28.10100
C  -7.81700 21.04500 26.69400
C  -6.98500 22.14200 26.23200
C  -7.94700 20.03100 29.14500
C  -8.63000 20.10000 25.80900
O  -8.90700 20.38500 24.62300
C  -9.08700 18.72400 26.28000
N  -5.32000 24.55800 25.17000
C  -5.97300 23.61500 24.38200
C  -5.69900 23.91000 22.94300
C  -4.77200 25.17400 22.83700
C  -4.60800 25.45200 24.34000
C  -5.24900 22.67900 22.10000
C  -5.37300 26.38000 22.08300
C  -4.94400 26.45700 20.60500
N  -3.89500 26.01800 27.18100
C  -3.38100 26.77900 26.13200
C  -2.50100 27.90900 26.61000
C  -2.55000 27.71500 28.00000
C  -3.42600 26.62300 28.30100
C  -1.78700 28.93500 25.74900
C  -2.03300 28.27400 29.24000
O  -1.24900 29.20200 29.44300
C  -2.78100 27.47500 30.39000
C  -1.66500 26.98400 31.33300
O  -0.58100 26.54900 31.00300
O  -2.03300 27.27600 32.64500
C  -1.03300 26.85400 33.62600
H  -6.79600 21.92300 30.55500
H  -7.24600 22.04300 24.05300
H  -3.20100 26.86300 23.98700
H  -3.94200 25.15700 32.46000
H  -6.32400 23.59600 32.27400
H  -3.58700 22.93500 32.90600
H  -4.09000 21.81900 31.73300
H  -5.03500 22.07100 33.19200
H  -6.83700 25.75100 32.17600
H  -5.77900 27.08800 31.73500
H  -6.23400 27.46900 33.98000
H  -4.65000 26.93300 33.94100
H  -7.01100 19.85400 29.67500
H  -8.29300 19.05500 28.80500
H  -8.67800 20.40400 29.86200
H  -8.25700 18.16700 26.71500
H  -9.45700 18.28200 25.35500
H  -9.85300 18.80700 27.05100
H  -6.66900 24.06000 22.46800
H  -3.77200 24.98400 22.44500
H  -5.16100 21.82900 22.77700
H  -4.26700 22.88500 21.67500
H  -6.05700 22.54500 21.38000
H  -5.16500 27.26900 22.67800
H  -6.45400 26.27700 21.98600
H  -4.65800 25.46600 20.25200
H  -4.05700 27.05100 20.38400
H  -5.81000 26.77000 20.02100
H  -2.54700 29.61400 25.36200
H  -1.26100 28.53800 24.88100
H  -1.10500 29.45700 26.42000
H  -3.50500 28.04800 30.96900
H  -1.16000 25.83800 34.00100
H  -1.12400 27.59400 34.42100
H  0.01800 26.83100 33.33800


