%nproc=24
%mem=175gb
#p cam-b3lyp/Def2SVP td=(nstates=5) density=(transition=1)

TDDFT excited states in gaussian

0 1
Mg 26.07000 0.32300 29.17500
C  27.93000 0.00300 32.17200
C  23.23700 0.37300 31.22200
C  24.20000 0.73500 26.50800
C  28.89900 -0.55900 27.35600
N  25.68800 0.23300 31.42600
C  26.58700 0.25300 32.44900
C  25.99300 0.25100 33.86800
C  24.43500 0.24800 33.45400
C  24.48700 0.27000 31.95500
C  23.63400 -1.02300 33.94300
C  26.39900 1.50900 34.70300
C  27.30600 1.47800 35.92700
H  27.07500 2.41400 37.10600
N  24.00400 0.60600 28.87400
C  22.98600 0.52400 29.83500
C  21.72400 0.61300 29.13500
C  21.97300 0.88000 27.79100
C  23.44300 0.80400 27.68300
C  20.46800 0.64800 29.93700
C  21.02800 1.08200 26.60700
O  21.39200 1.28100 25.44400
C  19.58500 1.18400 26.91000
N  26.42900 0.02500 27.20000
C  25.57000 0.46200 26.23000
C  26.30100 0.60400 24.85200
C  27.70600 0.10100 25.15700
C  27.68000 -0.24400 26.67200
C  25.55900 -0.10800 23.67400
C  28.73300 1.18300 24.79000
C  29.96300 0.77300 24.06500
N  28.00500 -0.28200 29.61000
C  29.05600 -0.58000 28.78000
C  30.24500 -0.86800 29.52500
C  29.92400 -0.56000 30.93700
C  28.52000 -0.19800 30.89800
C  31.58600 -1.33700 28.93500
C  30.40700 -0.48700 32.33900
O  31.55800 -0.58600 32.79700
C  29.11500 -0.11100 33.17500
C  29.05800 -1.28400 34.10300
O  28.53100 -2.37500 33.92200
O  29.56000 -0.97800 35.26800
C  29.75400 -2.03800 36.28700
H  22.46700 0.52900 31.98000
H  23.69600 0.81600 25.54300
H  29.79300 -0.76400 26.76400
H  26.26300 -0.69600 34.33700
H  23.82700 1.11200 33.72400
H  24.21800 -1.88400 34.26700
H  22.99700 -1.39000 33.13900
H  22.99100 -0.72400 34.77100
H  25.46900 1.94600 35.06700
H  26.90100 2.23700 34.06700
H  28.23400 1.84700 35.49000
H  27.27900 0.42100 36.19200
H  19.92700 1.58400 29.80500
H  20.67800 0.53600 31.00100
H  19.76300 -0.13800 29.66800
H  19.43300 1.90200 27.71600
H  19.18900 0.27500 27.36300
H  18.97400 1.53500 26.07900
H  26.25300 1.68100 24.69200
H  27.96600 -0.74800 24.52500
H  24.56100 -0.46700 23.92500
H  26.08600 -0.97800 23.28400
H  25.56500 0.53500 22.79400
H  29.00400 1.58600 25.76500
H  28.34900 1.97700 24.15000
H  30.78000 1.14300 24.68400
H  29.93300 1.13400 23.03700
H  30.14200 -0.30200 24.03500
H  31.60000 -2.42600 28.91000
H  32.38900 -0.93100 29.55000
H  31.71700 -1.01400 27.90200
H  29.35100 0.80400 33.71800
H  28.83300 -2.53300 36.59300
H  30.27100 -1.70300 37.18600
H  30.41000 -2.86500 36.01700
Mg 9.20100 48.63300 24.80700
C  7.00600 48.65300 27.54500
C  11.64200 49.94100 26.66500
C  11.05000 48.61100 22.15100
C  6.24200 48.21900 22.76700
N  9.22500 49.31100 26.85200
C  8.33600 49.09200 27.82900
C  8.78900 49.67200 29.14400
C  10.10600 50.44700 28.73700
C  10.36100 49.87000 27.35800
C  10.08400 52.01000 28.74700
C  9.14700 48.49500 30.18800
C  8.51500 48.70500 31.60300
H  8.63500 47.36700 32.51500
N  11.09800 48.95000 24.52400
C  12.00800 49.46400 25.43200
C  13.32900 49.31600 24.88600
C  13.24200 48.87600 23.50200
C  11.75200 48.67100 23.33700
C  14.54800 49.78900 25.72900
C  14.23500 48.59100 22.38100
O  13.96800 48.12400 21.25900
C  15.64500 48.82300 22.79500
N  8.62300 48.59400 22.78300
C  9.67100 48.60700 21.89600
C  9.16600 48.63700 20.45300
C  7.69000 48.19700 20.63800
C  7.46000 48.39900 22.13700
C  9.46200 50.04800 19.80600
C  7.33800 46.72100 20.17100
C  5.87200 46.44300 19.80200
N  7.05000 48.42700 25.05400
C  6.04600 48.27100 24.14700
C  4.77900 48.04000 24.80400
C  5.15700 48.11700 26.15700
C  6.52300 48.41500 26.26400
C  3.35900 47.77300 24.25400
C  4.63600 47.99600 27.49000
O  3.59000 47.60400 27.93700
C  5.82500 48.51800 28.45200
C  5.77300 47.51400 29.51800
O  6.28400 46.36600 29.55000
O  5.03000 48.07600 30.48700
C  4.75700 47.29300 31.69300
H  12.47200 50.28300 27.28700
H  11.67900 48.52800 21.26200
H  5.39900 48.00100 22.10800
H  8.05900 50.30600 29.64800
H  11.00500 50.19100 29.29800
H  10.13500 52.34800 27.71200
H  10.98900 52.30100 29.28000
H  9.22300 52.51800 29.18000
H  10.20800 48.27500 30.31200
H  8.82700 47.56600 29.71600
H  7.46000 48.96400 31.51600
H  9.00400 49.45600 32.22300
H  14.89000 48.94400 26.32500
H  14.28100 50.45800 26.54800
H  15.30300 50.38600 25.21800
H  15.98500 48.19800 23.62000
H  15.64000 49.89000 23.02100
H  16.36500 48.70300 21.98500
H  9.75900 47.88800 19.92800
H  7.04700 48.83900 20.03600
H  8.53800 50.61700 19.70400
H  9.90700 50.08500 18.81200
H  10.06100 50.74200 20.39600
H  7.49400 46.14100 21.08100
H  7.92900 46.29300 19.36100
H  5.39900 45.74600 20.49500
H  5.63800 46.05100 18.81200
H  5.34900 47.38100 19.98300
H  3.34300 48.21100 23.25600
H  2.59900 48.22600 24.89200
H  3.25800 46.69000 24.18400
H  5.55100 49.48200 28.88100
H  5.30400 47.73800 32.52400
H  4.92100 46.22700 31.53900
H  3.71000 47.43600 31.96000


