%nproc=24
%mem=175gb
#p cam-b3lyp/Def2SVP td=(nstates=5)

TDDFT excited states in gaussian

0 1
Mg 1.39700 7.67200 26.33400
C  1.72400 9.74100 29.05100
C  2.01300 4.99100 28.38100
C  1.18200 5.57500 23.58000
C  1.22200 10.43500 24.24700
N  1.88100 7.36900 28.50400
C  1.86000 8.39700 29.40300
C  2.08800 7.91400 30.75300
C  2.40000 6.43300 30.60700
C  2.12200 6.20500 29.05700
C  3.81300 5.91300 31.04400
C  0.86900 8.21500 31.69000
C  1.18400 8.50600 33.19800
H  2.44800 7.85400 33.79200
N  1.46600 5.54900 26.07500
C  1.71900 4.62900 27.07800
C  1.70700 3.27200 26.49500
C  1.45400 3.42700 25.06400
C  1.33100 4.87900 24.84700
C  1.96100 1.99300 27.27600
C  1.22600 2.33500 24.04500
O  0.94200 2.65000 22.87600
C  1.34900 0.88300 24.32000
N  1.30400 7.94800 24.20100
C  1.17000 6.94200 23.33200
C  0.89900 7.47700 21.91600
C  0.64800 9.06900 22.12400
C  1.00600 9.14600 23.65000
C  2.06300 7.12000 20.94100
C  -0.80600 9.55500 21.87400
C  -1.00500 10.45600 20.64600
N  1.52400 9.70800 26.54100
C  1.45100 10.73400 25.59600
C  1.56500 12.05000 26.26300
C  1.69000 11.65900 27.61700
C  1.66900 10.24300 27.72900
C  1.49300 13.37100 25.67200
C  1.73800 12.19000 28.99500
O  1.68200 13.31300 29.42100
C  1.80500 10.95700 29.96500
C  2.97400 11.12000 30.84400
O  4.12200 10.98100 30.39200
O  2.68100 11.28600 32.16300
C  3.77100 11.25200 33.13300
H  2.21100 4.15900 29.06000
H  1.15400 4.90100 22.72100
H  1.03400 11.27000 23.56900
H  2.96600 8.42700 31.14700
H  1.62000 5.81700 31.05600
H  4.56300 6.57700 31.47500
H  4.27400 5.43500 30.18000
H  3.77100 5.07400 31.73900
H  0.12500 7.42500 31.58700
H  0.27300 9.01100 31.24400
H  0.33700 8.21300 33.81900
H  1.41300 9.55400 33.38900
H  2.02800 2.15000 28.35200
H  2.91300 1.54300 26.99300
H  1.08700 1.34400 27.22400
H  1.03600 0.37200 23.41000
H  0.74800 0.54700 25.16600
H  2.36800 0.65900 24.63600
H  -0.06900 7.08000 21.61000
H  1.35900 9.68000 21.56800
H  1.72500 6.67300 20.00600
H  2.74700 6.40500 21.39900
H  2.59200 8.06400 20.80800
H  -1.22600 10.10700 22.71400
H  -1.49800 8.72100 21.75500
H  -0.24900 10.22000 19.89700
H  -0.86300 11.48900 20.96200
H  -2.04500 10.34200 20.34300
H  1.26400 14.14800 26.40100
H  0.76200 13.44400 24.86700
H  2.50500 13.65900 25.38700
H  0.85200 11.05500 30.48600
H  4.47400 12.08100 33.04700
H  4.27000 10.28300 33.12600
H  3.36500 11.36600 34.13800
Mg 7.14200 57.54600 41.51700
C  6.28900 54.20700 41.28700
C  10.28800 56.72100 40.38900
C  7.81200 60.89700 41.16900
C  3.94100 58.30400 42.53200
N  8.10000 55.73200 40.72500
C  7.55000 54.46800 40.80800
C  8.51900 53.39300 40.32300
C  9.88500 54.17400 40.37000
C  9.39700 55.61300 40.45200
C  10.94100 53.73800 41.48400
C  8.18100 52.71900 38.95500
C  8.31100 51.21100 38.91500
H  9.48100 50.75900 38.05500
N  8.80400 58.60500 40.85800
C  9.98200 58.10200 40.47200
C  10.93200 59.16600 40.19700
C  10.33500 60.40200 40.38100
C  8.90800 60.02900 40.77200
C  12.41400 58.88100 39.65800
C  11.01900 61.80700 40.27800
O  12.22600 61.86700 39.90900
C  10.28000 63.06100 40.55000
N  5.92900 59.42300 41.58100
C  6.46000 60.62400 41.57700
C  5.53200 61.67900 42.14200
C  4.20400 60.94400 42.52900
C  4.70000 59.43900 42.28400
C  6.08200 62.75400 43.13300
C  2.88100 61.24800 41.76800
C  1.64800 60.78800 42.51800
N  5.41300 56.46200 41.84200
C  4.16700 56.89800 42.34900
C  3.34900 55.73600 42.56600
C  4.13900 54.62000 42.19700
C  5.33900 55.15600 41.73800
C  2.01600 55.69000 43.29800
C  4.11700 53.24300 42.14700
O  3.28800 52.39200 42.32200
C  5.50100 52.88200 41.39400
C  5.07100 52.59100 39.95700
O  4.83200 53.42500 39.10500
O  4.99200 51.21300 39.83600
C  4.48800 50.71300 38.56100
H  11.34700 56.50800 40.23000
H  8.09700 61.94400 41.04900
H  2.94700 58.37800 42.97800
H  8.57300 52.63000 41.09900
H  10.29300 54.14500 39.35900
H  11.53300 54.64700 41.59000
H  11.67500 53.00700 41.14400
H  10.53800 53.39000 42.43500
H  8.89800 53.17500 38.27200
H  7.26400 53.03800 38.46000
H  7.37100 50.81600 38.52900
H  8.48000 50.78000 39.90200
H  12.65000 57.83100 39.48000
H  13.15600 59.27900 40.35100
H  12.59000 59.28000 38.66000
H  9.90800 63.04900 41.57400
H  9.55300 63.27700 39.76700
H  11.06400 63.81300 40.63000
H  5.09100 62.35700 41.41100
H  4.06100 60.88100 43.60800
H  7.16900 62.67900 43.08000
H  5.65900 62.68700 44.13600
H  5.85900 63.78200 42.84700
H  2.99200 60.79700 40.78200
H  2.91000 62.32500 41.60300
H  0.83700 61.47100 42.26400
H  1.73700 60.78400 43.60500
H  1.32700 59.82700 42.11600
H  1.67100 54.68100 43.52400
H  1.28900 56.22800 42.69100
H  2.06800 56.22200 44.24800
H  6.04900 52.10100 41.92200
H  3.44600 51.01000 38.44100
H  4.61600 49.63500 38.46900
H  5.02300 51.19800 37.74500


