%nproc=24
%mem=175gb
#p cam-b3lyp/Def2SVP td=(nstates=5)

TDDFT excited states in gaussian

0 1
Mg 3.63500 0.41800 44.38500
C  6.38200 2.41600 44.15700
C  1.85600 2.91600 42.76500
C  1.03400 -1.70200 44.27100
C  5.65900 -2.27700 45.39800
N  4.15300 2.34100 43.32400
C  5.35700 2.93700 43.43600
C  5.44100 4.20100 42.66100
C  3.82600 4.53100 42.53700
C  3.19500 3.17000 42.89900
C  3.38200 5.72400 43.43400
C  6.08500 3.93300 41.31000
C  5.45900 2.81500 40.35400
H  5.36900 3.04800 38.85100
N  1.72200 0.57100 43.63100
C  1.11700 1.74400 43.11300
C  -0.27500 1.47100 42.97900
C  -0.55500 0.16000 43.34400
C  0.72000 -0.40500 43.81700
C  -1.17200 2.58100 42.47000
C  -1.87000 -0.57100 43.21500
O  -2.81800 0.09700 42.73200
C  -2.07300 -1.97000 43.39000
N  3.45400 -1.75300 44.57800
C  2.23500 -2.36400 44.54600
C  2.35900 -3.87900 44.83600
C  3.87500 -4.03200 45.19700
C  4.39100 -2.62000 44.97700
C  1.41200 -4.36800 45.91100
C  4.59000 -5.14900 44.26500
C  5.56000 -6.06500 45.02000
N  5.66900 0.04500 44.75000
C  6.32000 -0.99300 45.33600
C  7.63200 -0.52000 45.68500
C  7.75100 0.85800 45.29200
C  6.52700 1.13100 44.70400
C  8.77000 -1.38000 46.11700
C  8.57600 2.01500 45.15500
O  9.73800 2.10000 45.57200
C  7.71800 3.05600 44.46000
C  7.61900 4.24800 45.33700
O  8.63700 4.80700 45.69500
O  6.34700 4.66100 45.59200
C  6.23700 5.85100 46.43800
H  1.24500 3.78600 42.51600
H  0.13600 -2.29700 44.44900
H  6.31200 -3.00800 45.88000
H  6.00100 5.03200 43.09000
H  3.58600 4.93100 41.55100
H  2.93500 6.50500 42.82000
H  4.28700 6.13300 43.88400
H  2.70200 5.45700 44.24400
H  7.14700 3.76700 41.49200
H  6.12500 4.93200 40.87600
H  4.43400 2.52000 40.57900
H  6.17000 1.99900 40.48000
H  -1.10900 2.52700 41.38300
H  -0.76100 3.53900 42.78600
H  -2.21500 2.54500 42.78600
H  -2.88500 -2.34300 42.76500
H  -2.15000 -2.27300 44.43500
H  -1.20000 -2.43300 42.93200
H  2.14200 -4.33200 43.86800
H  3.97500 -4.21900 46.26600
H  0.70500 -3.61400 46.25600
H  1.77700 -4.91000 46.78300
H  0.73700 -5.01500 45.35000
H  5.15900 -4.73200 43.43400
H  3.86400 -5.76700 43.73700
H  5.09600 -7.04700 45.10800
H  5.65500 -5.69200 46.04000
H  6.52700 -6.16100 44.52600
H  8.71100 -1.83500 47.10500
H  9.65100 -0.74100 46.04600
H  8.91100 -2.23600 45.45700
H  8.25000 3.32500 43.54700
H  6.78900 6.65600 45.95200
H  6.55900 5.68400 47.46600
H  5.19100 6.09800 46.61900
Mg -9.26600 18.27700 42.96500
C  -5.81100 17.58000 42.98100
C  -8.47400 21.42900 42.13900
C  -12.47500 18.67000 42.48700
C  -9.75200 14.74100 43.14100
N  -7.34400 19.34600 42.56200
C  -6.06200 18.93000 42.69300
C  -5.04000 20.02200 42.45000
C  -5.98500 21.29000 42.45900
C  -7.37700 20.70000 42.36700
C  -5.82600 22.23200 43.72300
C  -4.08200 20.00700 41.18000
C  -4.36600 19.09100 39.96000
H  -3.96500 19.61900 38.53200
N  -10.31800 19.93500 42.50700
C  -9.83700 21.10100 42.09700
C  -10.97100 21.97200 41.68400
C  -12.19800 21.17200 41.95900
C  -11.67600 19.85500 42.32500
C  -10.82500 23.41900 41.29700
C  -13.61600 21.63300 41.74500
O  -13.81100 22.79100 41.38400
C  -14.89900 20.73300 41.88300
N  -10.94800 16.84400 42.71500
C  -12.12100 17.37600 42.70200
C  -13.18200 16.19300 42.82000
C  -12.25700 14.97500 42.77500
C  -10.85500 15.54600 42.86600
C  -14.16200 16.18100 44.00500
C  -12.30000 14.18000 41.36900
C  -12.88700 12.75700 41.40300
N  -8.10600 16.49700 42.98200
C  -8.41600 15.17700 43.17700
C  -7.19300 14.39200 43.48700
C  -6.09500 15.27800 43.29700
C  -6.75800 16.56600 43.10100
C  -7.09800 12.86900 43.72900
C  -4.68100 15.45100 43.26700
O  -3.71100 14.67400 43.28400
C  -4.42500 16.97400 43.13600
C  -3.61000 17.39300 44.36300
O  -2.45500 17.69200 44.51200
O  -4.50700 17.60300 45.41600
C  -3.95600 18.13500 46.70100
H  -8.18700 22.44600 41.86300
H  -13.54300 18.86100 42.35700
H  -9.93500 13.71100 43.45300
H  -4.44700 20.04900 43.36400
H  -5.75600 21.91400 41.59500
H  -5.11000 21.81600 44.43100
H  -6.79600 22.11100 44.20400
H  -5.58800 23.24500 43.39800
H  -3.08000 19.78600 41.54800
H  -3.99700 21.02300 40.79300
H  -5.44200 18.91700 39.97000
H  -3.77000 18.17900 39.94600
H  -11.77100 23.96000 41.28900
H  -10.25700 23.43000 40.36600
H  -10.11700 23.80900 42.02900
H  -15.08400 20.15000 42.78600
H  -14.85100 19.96100 41.11500
H  -15.81700 21.30800 41.76500
H  -13.87700 16.19700 41.98100
H  -12.39400 14.18200 43.51100
H  -14.02600 17.04700 44.65300
H  -14.09900 15.25100 44.57100
H  -15.20700 16.25900 43.70500
H  -11.30400 14.05300 40.94700
H  -12.88100 14.81200 40.69700
H  -12.44900 12.05100 40.69700
H  -13.92900 12.87300 41.10500
H  -12.71100 12.44000 42.43100
H  -7.98800 12.30200 43.45800
H  -6.94100 12.78400 44.80400
H  -6.18900 12.50600 43.25000
H  -3.84800 17.16600 42.23200
H  -2.93200 17.88100 46.97400
H  -4.58000 17.65400 47.45400
H  -4.05900 19.20000 46.91000


