%nproc=24
%mem=175gb
#p cam-b3lyp/Def2SVP td=(nstates=5)

TDDFT excited states in gaussian

0 1
Mg -1.96800 16.99100 27.07800
C  -2.18500 14.77300 29.87900
C  -3.22300 19.43300 29.10400
C  -2.21300 18.84100 24.51400
C  -1.82200 14.16700 25.04100
N  -2.58500 16.98200 29.20400
C  -2.56200 16.08300 30.18300
C  -2.90400 16.68200 31.58000
C  -3.74100 17.95500 31.11000
C  -3.12300 18.15900 29.73800
C  -5.23100 17.67600 30.94100
C  -1.62300 17.10100 32.37700
C  -1.84400 17.38800 33.86500
H  -0.80000 17.02400 34.81100
N  -2.15300 18.95200 26.92600
C  -2.67100 19.79100 27.85500
C  -2.58800 21.14700 27.27100
C  -2.15500 21.00600 25.85300
C  -2.18200 19.57400 25.69800
C  -2.85500 22.39700 28.05200
C  -1.78700 22.00400 24.80100
O  -1.66500 21.68100 23.57000
C  -1.65800 23.40500 25.24100
N  -2.23300 16.57800 25.04900
C  -2.24700 17.56000 24.14100
C  -2.16400 17.01500 22.74600
C  -1.84400 15.45800 22.89800
C  -1.88200 15.35900 24.44300
C  -3.41900 17.19600 21.88100
C  -0.59500 14.92100 22.15500
C  0.65800 15.50100 22.77200
N  -1.81800 14.84700 27.38100
C  -1.79500 13.85500 26.39000
C  -1.79500 12.55300 27.08200
C  -1.83500 12.88000 28.43600
C  -1.88500 14.29600 28.58000
C  -1.81900 11.27600 26.45500
C  -1.87200 12.36200 29.79400
O  -1.76000 11.24400 30.29900
C  -2.22300 13.56300 30.77900
C  -1.25100 13.50900 31.92600
O  -0.03700 13.73600 31.74700
O  -1.93000 13.43500 33.08100
C  -1.02500 13.40800 34.26100
H  -3.82700 20.21100 29.57500
H  -2.18600 19.44400 23.60400
H  -1.69200 13.24400 24.47300
H  -3.52200 16.04200 32.21000
H  -3.55300 18.82200 31.74300
H  -5.45200 16.61400 31.04700
H  -5.47900 18.01800 29.93600
H  -5.82000 18.29200 31.62100
H  -1.29900 18.08700 32.04400
H  -0.83800 16.35200 32.26700
H  -2.81200 17.01700 34.20300
H  -1.90600 18.46800 33.99900
H  -3.31200 22.17700 29.01600
H  -3.61900 22.95400 27.51000
H  -1.96100 23.01100 28.16200
H  -2.60300 23.73500 25.67300
H  -1.30300 23.96100 24.37400
H  -0.92000 23.45700 26.04200
H  -1.36000 17.49200 22.18700
H  -2.66000 14.83500 22.53100
H  -3.23500 17.73100 20.94900
H  -4.17200 17.70500 22.48200
H  -3.93500 16.27100 21.62500
H  -0.61200 15.23200 21.11100
H  -0.51600 13.83400 22.17600
H  0.74600 16.46900 22.28000
H  1.51900 14.87000 22.54900
H  0.52700 15.68800 23.83800
H  -1.10100 10.65800 26.99400
H  -1.56400 11.34900 25.39800
H  -2.85900 10.99200 26.61500
H  -3.25100 13.41000 31.10600
H  -1.27000 12.51300 34.83300
H  -1.13500 14.37200 34.75800
H  0.03200 13.23700 34.05400
Mg 46.36700 34.87300 28.25800
C  44.78600 32.87200 30.57800
C  46.38600 37.42000 30.77600
C  47.55600 36.98300 26.07000
C  45.97900 32.44300 25.82700
N  45.44200 35.14400 30.41100
C  45.07300 34.11700 31.15800
C  45.12500 34.48000 32.66900
C  45.08600 36.04500 32.56800
C  45.67500 36.28100 31.16800
C  43.63100 36.61800 32.70900
C  46.46000 33.91200 33.20000
C  46.69200 34.00900 34.71400
H  45.77100 34.85100 35.57400
N  47.01100 36.84800 28.33900
C  46.96000 37.70200 29.49400
C  47.69800 38.90500 29.13400
C  48.14000 38.73300 27.78500
C  47.54200 37.48800 27.30500
C  47.97900 40.11100 30.10600
C  49.09900 39.67100 26.98000
O  49.27000 39.43700 25.81500
C  49.74700 40.84400 27.64100
N  46.80600 34.69600 26.23000
C  47.30800 35.72100 25.50500
C  47.46400 35.39100 24.02100
C  47.08600 33.89200 23.98700
C  46.58100 33.65400 25.46800
C  46.60500 36.26500 23.03500
C  48.11600 32.92900 23.45400
C  49.59100 32.99000 23.91900
N  45.55600 33.03000 28.12500
C  45.46900 32.14000 27.09300
C  44.91700 30.91500 27.63200
C  44.64100 31.10300 29.03000
C  45.05100 32.44500 29.25900
C  44.67700 29.67800 26.82400
C  44.09100 30.54400 30.21900
O  43.56800 29.43800 30.47700
C  43.93800 31.83400 31.19500
C  44.25300 31.34600 32.61000
O  45.22200 30.77300 32.93400
O  43.18900 31.65700 33.40800
C  43.38400 31.62900 34.84300
H  46.32800 38.21100 31.52600
H  47.90200 37.66100 25.28700
H  45.81100 31.64300 25.10400
H  44.23500 34.14900 33.20400
H  45.76700 36.36500 33.35700
H  43.51000 37.05600 33.69900
H  42.93300 35.79700 32.54400
H  43.41600 37.43400 32.01900
H  47.26100 34.50400 32.75800
H  46.66000 32.91100 32.81900
H  47.74400 34.11200 34.98100
H  46.57400 32.98400 35.06600
H  47.70900 41.07100 29.66500
H  49.03500 40.03600 30.36500
H  47.45400 39.94800 31.04800
H  50.66300 40.94800 27.05900
H  50.08200 40.62400 28.65400
H  49.16800 41.73600 27.88000
H  48.52200 35.54500 23.81000
H  46.16900 33.69700 23.43100
H  46.31700 35.59300 22.22700
H  47.32700 37.01000 22.70000
H  45.80600 36.77400 23.57400
H  48.21500 33.30700 22.43700
H  47.86400 31.86800 23.45400
H  50.35800 33.20100 23.17500
H  49.94100 32.01500 24.25800
H  49.69200 33.75700 24.68700
H  44.20400 28.97200 27.50600
H  45.62900 29.23800 26.52400
H  44.15300 29.83100 25.88100
H  42.91200 32.17200 31.04800
H  42.52900 30.96500 34.97100
H  43.38800 32.61600 35.30600
H  44.28100 31.10000 35.16600


