%nproc=24
%mem=175gb
#p cam-b3lyp/Def2SVP td=(nstates=5) density=(transition=1)

TDDFT excited states in gaussian

0 1
Mg 46.81700 25.04400 28.06300
C  47.43500 27.22400 30.70400
C  46.22200 22.54500 30.24300
C  46.68300 22.91500 25.44100
C  47.91200 27.51000 25.91600
N  46.85500 24.93200 30.27600
C  46.92700 25.99900 31.13500
C  46.69200 25.55600 32.52900
C  46.35500 24.06200 32.46000
C  46.45000 23.76800 30.90100
C  47.14000 23.08900 33.32600
C  45.54800 26.46400 33.25900
C  45.96500 27.28000 34.50500
H  45.04500 27.40000 35.69500
N  46.38000 23.04600 27.85500
C  46.17200 22.14900 28.89200
C  45.97200 20.84900 28.36300
C  46.10600 20.92300 26.95000
C  46.38200 22.34000 26.69200
C  45.54700 19.69500 29.35300
C  46.04800 19.73200 25.99500
O  46.24200 19.78300 24.77100
C  45.65900 18.41400 26.50400
N  47.46200 25.07000 25.97900
C  47.20100 24.13500 25.08900
C  47.75300 24.52400 23.69900
C  47.64000 26.09100 23.86200
C  47.64600 26.26000 25.37800
C  49.21100 24.11600 23.27000
C  46.37000 26.80300 23.19000
C  45.02600 26.38600 23.62800
N  47.60700 27.03800 28.18700
C  48.00800 27.95100 27.19200
C  48.42700 29.16900 27.80900
C  48.29400 28.93400 29.16300
C  47.68500 27.64800 29.33600
C  49.11900 30.26800 27.16400
C  48.30700 29.55700 30.40200
O  48.64500 30.69400 30.74700
C  47.85400 28.48300 31.49300
C  49.08400 28.17700 32.28200
O  50.16500 27.73400 31.95500
O  48.78800 28.53400 33.53300
C  49.86000 28.29900 34.55500
H  45.83500 21.89200 31.02800
H  46.47600 22.23000 24.61700
H  48.19300 28.30200 25.21900
H  47.64500 25.71200 33.03300
H  45.30400 23.92600 32.71400
H  47.87300 22.82100 32.56600
H  46.56600 22.26800 33.75600
H  47.69200 23.45800 34.19000
H  44.70400 25.82300 33.51200
H  45.17000 27.27500 32.63600
H  46.05600 28.31300 34.16800
H  46.96700 27.02300 34.84600
H  46.22400 18.85300 29.21000
H  44.59100 19.46800 28.88100
H  45.60100 19.88500 30.42500
H  46.32300 18.09200 27.30500
H  45.94900 17.70600 25.72800
H  44.60000 18.29800 26.73600
H  46.98600 24.30500 22.95600
H  48.53000 26.46300 23.35500
H  49.97100 24.18900 24.04700
H  49.40300 24.79200 22.43600
H  49.23500 23.08400 22.91900
H  46.32700 26.67600 22.10800
H  46.28900 27.84300 23.50600
H  44.88500 26.94500 24.55200
H  44.84400 25.33800 23.86800
H  44.17200 26.64500 23.00300
H  50.15800 29.93700 27.14300
H  49.06200 31.22600 27.68000
H  48.71000 30.52400 26.18600
H  47.00000 28.80500 32.08900
H  49.50700 27.43600 35.12000
H  49.99000 29.19400 35.16300
H  50.84800 28.01700 34.19000
Mg 29.10200 58.37000 41.70600
C  26.21100 56.85000 40.52500
C  31.00300 55.92400 39.98500
C  31.78200 60.36200 41.82300
C  27.09800 61.07100 42.76300
N  28.62400 56.74200 40.07100
C  27.36300 56.19900 40.01300
C  27.34200 54.94600 39.19500
C  28.87800 54.50900 39.24100
C  29.59900 55.79900 39.77000
C  29.21600 53.21300 40.13700
C  26.66600 55.21800 37.75400
C  26.06800 54.05700 37.13700
H  26.60500 53.76400 35.72000
N  31.13700 58.12700 41.18100
C  31.72600 57.03700 40.48100
C  33.15300 57.29600 40.39000
C  33.42500 58.57400 40.93600
C  32.09000 59.05300 41.42900
C  34.07200 56.38900 39.66000
C  34.85200 59.26600 40.92400
O  35.77500 58.62800 40.42000
C  35.15900 60.50100 41.76400
N  29.32700 60.43000 42.12600
C  30.57900 60.94600 42.21600
C  30.58100 62.56100 42.56700
C  29.07200 62.72600 43.08400
C  28.42300 61.36300 42.68500
C  31.60200 63.02200 43.67500
C  28.34100 63.90500 42.43900
C  27.75100 65.04300 43.30600
N  27.08200 58.74100 41.92000
C  26.43600 59.84700 42.39100
C  25.02600 59.57700 42.45300
C  24.91200 58.38300 41.64600
C  26.21500 57.96500 41.32600
C  23.95900 60.50800 42.95200
C  23.95200 57.50800 41.00600
O  22.77000 57.42900 41.15100
C  24.75000 56.37400 40.25200
C  24.55300 54.95400 40.82700
O  24.66200 54.66400 41.99900
O  24.13200 54.08300 39.80100
C  23.73600 52.76500 40.19600
H  31.53000 55.10300 39.49600
H  32.55200 61.12000 41.66600
H  26.51800 61.92400 43.12000
H  26.89400 54.10800 39.73000
H  29.20300 54.31600 38.21800
H  29.65600 52.49600 39.44400
H  28.33800 52.79800 40.63100
H  29.96300 53.53300 40.86400
H  27.50600 55.54800 37.14300
H  26.02700 56.07100 37.98400
H  24.99800 54.25700 37.09500
H  26.28800 53.16600 37.72500
H  33.60300 55.42900 39.44500
H  34.92200 56.13300 40.29300
H  34.37800 56.81900 38.70600
H  34.62000 61.39400 41.44600
H  36.23600 60.66600 41.71900
H  34.91600 60.25600 42.79800
H  30.70200 63.02600 41.58900
H  28.95600 62.73400 44.16800
H  32.36800 63.65500 43.22800
H  32.08100 62.14600 44.11400
H  31.02600 63.57600 44.41700
H  27.57000 63.56900 41.74600
H  28.92000 64.44500 41.69000
H  26.66500 65.11700 43.36900
H  28.07200 65.96200 42.81500
H  28.11700 64.98900 44.33200
H  23.07500 59.90100 43.14900
H  23.49000 61.12600 42.18700
H  24.26100 61.15900 43.77200
H  24.32100 56.40300 39.25000
H  23.95500 52.21700 39.27900
H  22.65500 52.67800 40.30400
H  24.24700 52.46200 41.10900


