%nproc=24
%mem=175gb
#p PBE1PBE/Def2SVP td=(nstates=5) density=(transition=1)

TDDFT excited states in gaussian

0 1
Mg 3.63500 0.41800 44.38500
C  6.38200 2.41600 44.15700
C  1.85600 2.91600 42.76500
C  1.03400 -1.70200 44.27100
C  5.65900 -2.27700 45.39800
N  4.15300 2.34100 43.32400
C  5.35700 2.93700 43.43600
C  5.44100 4.20100 42.66100
C  3.82600 4.53100 42.53700
C  3.19500 3.17000 42.89900
C  3.38200 5.72400 43.43400
C  6.08500 3.93300 41.31000
C  5.45900 2.81500 40.35400
H  5.36900 3.04800 38.85100
N  1.72200 0.57100 43.63100
C  1.11700 1.74400 43.11300
C  -0.27500 1.47100 42.97900
C  -0.55500 0.16000 43.34400
C  0.72000 -0.40500 43.81700
C  -1.17200 2.58100 42.47000
C  -1.87000 -0.57100 43.21500
O  -2.81800 0.09700 42.73200
C  -2.07300 -1.97000 43.39000
N  3.45400 -1.75300 44.57800
C  2.23500 -2.36400 44.54600
C  2.35900 -3.87900 44.83600
C  3.87500 -4.03200 45.19700
C  4.39100 -2.62000 44.97700
C  1.41200 -4.36800 45.91100
C  4.59000 -5.14900 44.26500
C  5.56000 -6.06500 45.02000
N  5.66900 0.04500 44.75000
C  6.32000 -0.99300 45.33600
C  7.63200 -0.52000 45.68500
C  7.75100 0.85800 45.29200
C  6.52700 1.13100 44.70400
C  8.77000 -1.38000 46.11700
C  8.57600 2.01500 45.15500
O  9.73800 2.10000 45.57200
C  7.71800 3.05600 44.46000
C  7.61900 4.24800 45.33700
O  8.63700 4.80700 45.69500
O  6.34700 4.66100 45.59200
C  6.23700 5.85100 46.43800
H  1.24500 3.78600 42.51600
H  0.13600 -2.29700 44.44900
H  6.31200 -3.00800 45.88000
H  6.00100 5.03200 43.09000
H  3.58600 4.93100 41.55100
H  2.93500 6.50500 42.82000
H  4.28700 6.13300 43.88400
H  2.70200 5.45700 44.24400
H  7.14700 3.76700 41.49200
H  6.12500 4.93200 40.87600
H  4.43400 2.52000 40.57900
H  6.17000 1.99900 40.48000
H  -1.10900 2.52700 41.38300
H  -0.76100 3.53900 42.78600
H  -2.21500 2.54500 42.78600
H  -2.88500 -2.34300 42.76500
H  -2.15000 -2.27300 44.43500
H  -1.20000 -2.43300 42.93200
H  2.14200 -4.33200 43.86800
H  3.97500 -4.21900 46.26600
H  0.70500 -3.61400 46.25600
H  1.77700 -4.91000 46.78300
H  0.73700 -5.01500 45.35000
H  5.15900 -4.73200 43.43400
H  3.86400 -5.76700 43.73700
H  5.09600 -7.04700 45.10800
H  5.65500 -5.69200 46.04000
H  6.52700 -6.16100 44.52600
H  8.71100 -1.83500 47.10500
H  9.65100 -0.74100 46.04600
H  8.91100 -2.23600 45.45700
H  8.25000 3.32500 43.54700
H  6.78900 6.65600 45.95200
H  6.55900 5.68400 47.46600
H  5.19100 6.09800 46.61900
Mg 25.94600 0.51000 29.41700
C  27.75500 0.04800 32.42200
C  23.08400 0.98300 31.28700
C  24.18800 0.65700 26.52400
C  28.83500 -0.18800 27.55800
N  25.56000 0.39300 31.59400
C  26.46800 0.41400 32.65000
C  25.73500 0.61600 34.03900
C  24.24300 0.62700 33.61200
C  24.25900 0.61600 32.06700
C  23.30400 -0.50900 34.16600
C  26.25400 1.80200 34.95100
C  26.76400 1.39400 36.30000
H  26.45300 2.38700 37.48900
N  23.95800 0.76900 29.03000
C  22.92100 1.01800 29.90600
C  21.67800 1.14300 29.16100
C  21.94400 1.05800 27.76500
C  23.43600 0.83800 27.70800
C  20.32000 1.49500 29.80100
C  21.00100 1.19500 26.57400
O  21.36800 1.18900 25.41700
C  19.44600 1.46900 26.69600
N  26.43900 0.16900 27.31600
C  25.54800 0.29300 26.34100
C  26.18900 0.06900 24.92500
C  27.73100 -0.01000 25.26000
C  27.69500 0.01500 26.81800
C  25.54500 -1.13400 24.17700
C  28.51900 1.10000 24.59300
C  29.85400 0.64900 24.00300
N  27.89800 -0.11200 29.79400
C  28.99000 -0.26300 28.96100
C  30.08800 -0.69100 29.77200
C  29.69800 -0.55100 31.12700
C  28.32100 -0.19300 31.11800
C  31.42300 -1.10700 29.28200
C  30.17600 -0.59300 32.52000
O  31.23000 -0.96300 33.02900
C  28.81000 -0.12800 33.44600
C  28.50200 -1.15100 34.39600
O  27.57900 -1.93000 34.29600
O  29.31100 -1.04800 35.50500
C  29.06500 -2.12600 36.49500
H  22.18200 1.26000 31.83700
H  23.66500 0.64600 25.56600
H  29.70300 -0.30600 26.90500
H  25.82900 -0.35200 34.53000
H  23.76600 1.56200 33.90600
H  22.35300 -0.03400 34.40900
H  23.77900 -0.95200 35.04100
H  23.10600 -1.31400 33.45800
H  25.42400 2.50500 35.02300
H  27.09400 2.25600 34.42500
H  27.85000 1.29700 36.26800
H  26.30600 0.41800 36.45800
H  20.08400 2.49100 29.42800
H  20.46000 1.63600 30.87300
H  19.49000 0.83300 29.55100
H  19.31200 2.38400 27.27400
H  18.87900 0.57700 26.96400
H  19.10200 1.53100 25.66400
H  26.08400 0.92600 24.26000
H  28.04800 -1.00900 24.96000
H  26.34500 -1.78700 23.82700
H  24.86300 -0.83400 23.38100
H  24.93000 -1.70700 24.86900
H  28.70300 1.93600 25.26700
H  27.98200 1.61200 23.79300
H  30.10400 -0.36600 24.31200
H  30.60900 1.32100 24.41200
H  29.90400 0.79600 22.92400
H  31.58400 -1.10700 28.20400
H  31.68500 -2.00300 29.84600
H  32.04200 -0.24000 29.51400
H  29.03700 0.80200 33.96800
H  29.24700 -3.09800 36.03600
H  28.05200 -1.96800 36.86500
H  29.74500 -2.08500 37.34500


