%nproc=24
%mem=175gb
#p PBE1PBE/Def2SVP td=(nstates=5) density=(transition=1)

TDDFT excited states in gaussian

0 1
Mg 15.62100 51.82400 26.04800
C  17.47400 50.60700 28.62800
C  13.11000 52.75700 28.20700
C  13.81500 52.82700 23.36600
C  17.99400 50.42600 23.83300
N  15.23600 51.49000 28.16800
C  16.26900 51.27600 29.02600
C  15.94600 51.61800 30.44100
C  14.40600 52.07300 30.26100
C  14.21100 52.11900 28.78100
C  13.38100 51.07100 30.96200
C  16.88200 52.82900 30.90600
C  17.11300 53.00000 32.40900
H  16.27700 52.29800 33.50800
N  13.77400 52.76600 25.77300
C  12.87200 53.04400 26.81300
C  11.70500 53.64500 26.21000
C  11.90800 53.69900 24.81600
C  13.23300 53.12400 24.62900
C  10.53200 54.15900 27.07700
C  10.86200 54.19000 23.68400
O  11.18100 54.33400 22.49700
C  9.41300 54.55600 23.96000
N  15.93700 51.69300 23.86100
C  14.99700 52.16200 23.00600
C  15.27300 51.71300 21.57200
C  16.82600 51.21000 21.68000
C  17.02200 51.18500 23.20400
C  14.21700 50.69700 20.93700
C  17.94900 52.21900 21.11400
C  19.01900 51.70400 20.16900
N  17.42400 50.77200 26.12100
C  18.25400 50.26800 25.19100
C  19.45700 49.67400 25.85400
C  19.17000 49.86100 27.22700
C  17.86900 50.41600 27.30000
C  20.69200 49.07400 25.28100
C  19.74000 49.61300 28.49800
O  20.83000 49.08800 28.80500
C  18.66300 50.08200 29.47300
C  18.25000 48.96100 30.28600
O  17.83600 47.88700 29.97900
O  18.30900 49.39800 31.60600
C  17.88900 48.52200 32.76600
H  12.38500 53.27700 28.83600
H  13.18500 53.06500 22.50600
H  18.65800 49.80900 23.22500
H  16.01600 50.87800 31.23800
H  14.23400 53.06400 30.68100
H  12.50100 51.52900 31.41300
H  13.92900 50.42000 31.64300
H  12.99700 50.42600 30.17100
H  16.51300 53.78500 30.53400
H  17.84200 52.64500 30.42300
H  17.07200 54.07500 32.58900
H  18.14900 52.74600 32.63000
H  10.69700 54.07400 28.15100
H  9.65000 53.59900 26.76800
H  10.36400 55.20000 26.80000
H  9.47200 55.48000 24.53400
H  8.95500 53.91200 24.71100
H  8.82100 54.48200 23.04800
H  15.27500 52.60400 20.94300
H  16.96000 50.24900 21.18300
H  14.69800 49.77000 20.62400
H  13.70900 51.16400 20.09400
H  13.48400 50.38900 21.68300
H  18.44000 52.77000 21.91600
H  17.40700 53.00700 20.59200
H  19.97700 51.93800 20.63200
H  18.94100 52.12500 19.16700
H  18.97400 50.61500 20.12300
H  20.76700 49.12700 24.19500
H  20.76600 48.01700 25.53800
H  21.55200 49.59200 25.70500
H  19.01800 50.87900 30.12700
H  17.50200 47.57000 32.40200
H  17.07000 48.99900 33.30600
H  18.78800 48.39000 33.36800
Mg -10.08900 40.79200 42.94700
C  -8.61600 37.87300 41.73900
C  -7.78200 42.64100 41.17400
C  -11.69100 43.40600 44.11700
C  -13.01100 38.80800 43.84600
N  -8.29800 40.23100 41.61500
C  -7.89900 38.98100 41.23300
C  -6.67800 39.04800 40.38600
C  -6.44000 40.59600 40.17200
C  -7.57700 41.25700 41.04500
C  -4.98600 41.06900 40.42300
C  -6.83200 38.29900 39.04000
C  -5.67600 37.32300 38.82800
H  -4.88500 37.42500 37.48900
N  -9.75400 42.76600 42.70300
C  -8.72900 43.36600 41.97300
C  -8.87200 44.79700 42.20800
C  -10.00600 45.05500 43.11000
C  -10.52500 43.68700 43.42700
C  -8.10300 45.78800 41.48800
C  -10.49500 46.41500 43.39200
O  -9.97600 47.42800 42.97200
C  -11.74500 46.70800 44.14600
N  -12.01700 41.03600 43.77600
C  -12.30900 42.20100 44.43900
C  -13.68100 42.11000 45.07300
C  -14.24200 40.84200 44.54700
C  -13.08300 40.19800 43.96600
C  -13.70800 42.29100 46.64600
C  -15.26700 41.05700 43.38100
C  -16.32200 40.05900 43.24400
N  -10.72900 38.74300 42.86600
C  -11.88000 38.08300 43.31600
C  -11.64700 36.67300 43.29400
C  -10.42100 36.52600 42.65600
C  -9.90000 37.83800 42.36900
C  -12.60800 35.66600 43.80900
C  -9.50700 35.58200 42.14800
O  -9.55000 34.37200 42.15700
C  -8.30600 36.38400 41.59900
C  -7.07900 35.93500 42.27600
O  -6.65100 36.36600 43.36000
O  -6.55600 34.85100 41.60900
C  -5.28400 34.28000 42.02100
H  -6.98400 43.15900 40.63900
H  -12.35200 44.18100 44.51300
H  -13.89800 38.25100 44.15500
H  -5.86700 38.79100 41.06800
H  -6.60400 40.92400 39.14600
H  -4.42500 40.13600 40.35700
H  -4.81000 41.64900 41.32900
H  -4.66100 41.71400 39.60700
H  -6.76000 38.94200 38.16300
H  -7.79900 37.79800 39.08100
H  -6.24400 36.39600 38.75100
H  -5.06200 37.35000 39.72700
H  -7.39900 45.26300 40.84200
H  -7.46100 46.42800 42.09400
H  -8.77100 46.37100 40.85300
H  -11.59200 46.04300 44.99600
H  -12.59700 46.39100 43.54400
H  -11.78600 47.75300 44.45400
H  -14.19200 42.98500 44.67300
H  -14.60800 40.10900 45.26600
H  -12.74000 42.63900 47.00700
H  -14.11000 41.44200 47.20000
H  -14.30700 43.14200 46.96900
H  -14.72400 41.14600 42.44000
H  -15.78500 42.00900 43.49600
H  -17.15500 40.34300 43.88800
H  -15.96800 39.05000 43.45800
H  -16.80100 40.16400 42.27000
H  -13.09400 36.01500 44.72000
H  -12.17300 34.67900 43.96700
H  -13.39900 35.66300 43.05900
H  -8.06700 36.13500 40.56500
H  -5.23500 33.70700 42.94700
H  -4.52300 35.06000 42.03400
H  -5.07200 33.53500 41.25500


