%nproc=24
%mem=175gb
#p PBE1PBE/Def2SVP td=(nstates=5) density=(transition=1)

TDDFT excited states in gaussian

0 1
Mg 46.36700 34.87300 28.25800
C  44.78600 32.87200 30.57800
C  46.38600 37.42000 30.77600
C  47.55600 36.98300 26.07000
C  45.97900 32.44300 25.82700
N  45.44200 35.14400 30.41100
C  45.07300 34.11700 31.15800
C  45.12500 34.48000 32.66900
C  45.08600 36.04500 32.56800
C  45.67500 36.28100 31.16800
C  43.63100 36.61800 32.70900
C  46.46000 33.91200 33.20000
C  46.69200 34.00900 34.71400
H  45.77100 34.85100 35.57400
N  47.01100 36.84800 28.33900
C  46.96000 37.70200 29.49400
C  47.69800 38.90500 29.13400
C  48.14000 38.73300 27.78500
C  47.54200 37.48800 27.30500
C  47.97900 40.11100 30.10600
C  49.09900 39.67100 26.98000
O  49.27000 39.43700 25.81500
C  49.74700 40.84400 27.64100
N  46.80600 34.69600 26.23000
C  47.30800 35.72100 25.50500
C  47.46400 35.39100 24.02100
C  47.08600 33.89200 23.98700
C  46.58100 33.65400 25.46800
C  46.60500 36.26500 23.03500
C  48.11600 32.92900 23.45400
C  49.59100 32.99000 23.91900
N  45.55600 33.03000 28.12500
C  45.46900 32.14000 27.09300
C  44.91700 30.91500 27.63200
C  44.64100 31.10300 29.03000
C  45.05100 32.44500 29.25900
C  44.67700 29.67800 26.82400
C  44.09100 30.54400 30.21900
O  43.56800 29.43800 30.47700
C  43.93800 31.83400 31.19500
C  44.25300 31.34600 32.61000
O  45.22200 30.77300 32.93400
O  43.18900 31.65700 33.40800
C  43.38400 31.62900 34.84300
H  46.32800 38.21100 31.52600
H  47.90200 37.66100 25.28700
H  45.81100 31.64300 25.10400
H  44.23500 34.14900 33.20400
H  45.76700 36.36500 33.35700
H  43.51000 37.05600 33.69900
H  42.93300 35.79700 32.54400
H  43.41600 37.43400 32.01900
H  47.26100 34.50400 32.75800
H  46.66000 32.91100 32.81900
H  47.74400 34.11200 34.98100
H  46.57400 32.98400 35.06600
H  47.70900 41.07100 29.66500
H  49.03500 40.03600 30.36500
H  47.45400 39.94800 31.04800
H  50.66300 40.94800 27.05900
H  50.08200 40.62400 28.65400
H  49.16800 41.73600 27.88000
H  48.52200 35.54500 23.81000
H  46.16900 33.69700 23.43100
H  46.31700 35.59300 22.22700
H  47.32700 37.01000 22.70000
H  45.80600 36.77400 23.57400
H  48.21500 33.30700 22.43700
H  47.86400 31.86800 23.45400
H  50.35800 33.20100 23.17500
H  49.94100 32.01500 24.25800
H  49.69200 33.75700 24.68700
H  44.20400 28.97200 27.50600
H  45.62900 29.23800 26.52400
H  44.15300 29.83100 25.88100
H  42.91200 32.17200 31.04800
H  42.52900 30.96500 34.97100
H  43.38800 32.61600 35.30600
H  44.28100 31.10000 35.16600
Mg -2.59000 34.01700 26.79400
C  -3.62000 32.41400 29.77300
C  -1.15300 36.45800 28.71900
C  -2.20600 35.82500 24.04600
C  -4.51700 31.70900 25.00200
N  -2.55200 34.47200 29.00300
C  -2.95200 33.59300 30.01300
C  -2.37700 34.05700 31.37400
C  -1.60200 35.37500 31.00700
C  -1.71600 35.46600 29.46000
C  -1.91400 36.61400 31.82800
C  -1.50900 33.04200 32.13400
C  -1.98900 32.76400 33.58500
H  -0.95800 32.99700 34.66700
N  -1.70200 35.86000 26.44900
C  -1.19200 36.74900 27.34900
C  -0.55100 37.80700 26.60500
C  -0.98500 37.71000 25.21400
C  -1.68000 36.43200 25.23200
C  0.22600 39.02700 27.32500
C  -1.03600 38.70200 24.13300
O  -1.40600 38.53400 23.00600
C  -0.57600 40.11000 24.49900
N  -3.46600 33.87800 24.82300
C  -3.08300 34.73100 23.85300
C  -3.52500 34.22200 22.47900
C  -3.92700 32.76700 22.76900
C  -3.94500 32.73700 24.28100
C  -4.74000 35.08300 21.90100
C  -2.77000 31.79500 22.20500
C  -1.44300 31.78800 23.01200
N  -3.75200 32.29300 27.19100
C  -4.44100 31.48200 26.37200
C  -5.05500 30.45500 27.17000
C  -4.72100 30.75200 28.47800
C  -3.96900 31.93000 28.47700
C  -5.92100 29.29000 26.73000
C  -4.97000 30.27500 29.84100
O  -5.63000 29.44100 30.39400
C  -4.20300 31.28400 30.73600
C  -5.22200 31.86200 31.64700
O  -6.22400 32.38000 31.22200
O  -4.94100 31.66200 32.98900
C  -6.05600 31.94700 33.95300
H  -0.52600 37.10900 29.33200
H  -2.00600 36.32000 23.09300
H  -4.95700 30.83400 24.51900
H  -3.20300 34.37600 32.01000
H  -0.55500 35.23200 31.27500
H  -2.84600 36.49700 32.37900
H  -1.95200 37.53200 31.24100
H  -1.13500 36.66900 32.58800
H  -0.45800 33.28400 32.29200
H  -1.47400 32.09100 31.60300
H  -2.46500 31.78700 33.66800
H  -2.77300 33.48500 33.81300
H  1.18600 39.15100 26.82400
H  0.47900 38.88500 28.37500
H  -0.26700 39.99700 27.38900
H  0.46900 39.96700 24.77500
H  -1.19700 40.39100 25.34900
H  -0.59300 40.82400 23.67500
H  -2.71600 34.17900 21.74900
H  -4.90200 32.39200 22.45700
H  -4.66500 35.04300 20.81400
H  -4.79700 36.14200 22.15500
H  -5.62600 34.53900 22.22800
H  -2.53100 31.98600 21.15900
H  -3.07000 30.75600 22.34200
H  -0.61000 31.26900 22.53900
H  -1.63900 31.28300 23.95800
H  -1.17900 32.82600 23.21700
H  -5.41600 28.57400 26.08200
H  -6.72000 29.76700 26.16300
H  -6.40800 28.78800 27.56600
H  -3.52700 30.64600 31.30500
H  -5.48500 32.48600 34.70900
H  -6.48400 31.04500 34.39000
H  -6.92400 32.52400 33.63500


