%nproc=24
%mem=175gb
#p PBE1PBE/Def2SVP td=(nstates=5) density=(transition=1)

TDDFT excited states in gaussian

0 1
Mg 17.05400 -2.28800 27.75000
C  16.54800 -0.35400 30.72600
C  18.85200 -4.52900 29.65700
C  18.01300 -3.67000 24.94900
C  15.39200 0.22200 26.03300
N  17.88600 -2.27700 29.96200
C  17.41200 -1.43700 30.93300
C  17.78200 -2.00100 32.33100
C  18.58500 -3.32700 31.99600
C  18.48400 -3.42400 30.43000
C  20.10200 -3.41100 32.45300
C  16.57800 -2.28600 33.26800
C  16.68400 -1.85000 34.68600
H  18.05300 -1.52300 35.39600
N  18.30500 -3.91800 27.31000
C  18.85900 -4.81900 28.21900
C  19.64100 -5.82500 27.47500
C  19.29300 -5.63200 26.08300
C  18.51600 -4.37100 26.05800
C  20.53100 -6.87100 28.07500
C  19.63900 -6.46300 24.82500
O  19.04500 -6.38400 23.72900
C  20.63000 -7.54600 24.97700
N  16.79100 -1.75400 25.84400
C  17.37300 -2.49900 24.84200
C  16.84500 -2.07000 23.44500
C  15.70300 -1.04100 23.86200
C  15.95300 -0.84300 25.34700
C  17.88000 -1.47900 22.40300
C  14.26500 -1.46100 23.60200
C  13.50200 -0.61900 22.55800
N  15.98100 -0.53800 28.25500
C  15.38600 0.39400 27.43800
C  14.87800 1.51400 28.24100
C  15.27300 1.20700 29.53100
C  15.93800 -0.03900 29.49700
C  14.17200 2.75100 27.79300
C  15.18900 1.69900 30.85900
O  14.57400 2.68200 31.36200
C  15.98100 0.75800 31.66400
C  17.01200 1.50300 32.46800
O  17.97500 2.03100 32.02700
O  16.72000 1.42300 33.76600
C  17.36800 2.29700 34.68400
H  19.44500 -5.28100 30.18200
H  18.21500 -4.04600 23.94300
H  14.94000 1.04300 25.47400
H  18.42200 -1.24900 32.79400
H  18.07000 -4.18900 32.41900
H  20.43900 -2.60400 33.10300
H  20.70600 -3.31100 31.55000
H  20.31100 -4.38200 32.90300
H  16.34900 -3.34900 33.35200
H  15.66000 -1.80400 32.93300
H  16.30900 -2.63700 35.34100
H  16.04900 -0.97200 34.80100
H  21.52400 -6.79800 27.63200
H  20.09600 -7.83300 27.80400
H  20.47400 -6.87000 29.16400
H  21.57900 -7.08500 25.25100
H  20.75500 -7.96300 23.97800
H  20.26200 -8.35300 25.61000
H  16.37000 -2.96000 23.03100
H  15.88800 -0.12500 23.30100
H  18.88000 -1.46500 22.83500
H  17.57100 -0.51800 21.99000
H  17.86400 -2.13300 21.53100
H  13.63500 -1.61600 24.47800
H  14.30700 -2.45900 23.16700
H  12.47900 -0.33500 22.80400
H  13.29800 -1.28100 21.71600
H  13.99200 0.30400 22.25100
H  13.75500 2.65600 26.79000
H  14.88900 3.56000 27.65400
H  13.49700 3.03000 28.60200
H  15.27200 0.27100 32.33300
H  16.91900 3.28000 34.53500
H  18.41700 2.43200 34.42000
H  17.17400 2.00000 35.71500
Mg 26.07000 0.32300 29.17500
C  27.93000 0.00300 32.17200
C  23.23700 0.37300 31.22200
C  24.20000 0.73500 26.50800
C  28.89900 -0.55900 27.35600
N  25.68800 0.23300 31.42600
C  26.58700 0.25300 32.44900
C  25.99300 0.25100 33.86800
C  24.43500 0.24800 33.45400
C  24.48700 0.27000 31.95500
C  23.63400 -1.02300 33.94300
C  26.39900 1.50900 34.70300
C  27.30600 1.47800 35.92700
H  27.07500 2.41400 37.10600
N  24.00400 0.60600 28.87400
C  22.98600 0.52400 29.83500
C  21.72400 0.61300 29.13500
C  21.97300 0.88000 27.79100
C  23.44300 0.80400 27.68300
C  20.46800 0.64800 29.93700
C  21.02800 1.08200 26.60700
O  21.39200 1.28100 25.44400
C  19.58500 1.18400 26.91000
N  26.42900 0.02500 27.20000
C  25.57000 0.46200 26.23000
C  26.30100 0.60400 24.85200
C  27.70600 0.10100 25.15700
C  27.68000 -0.24400 26.67200
C  25.55900 -0.10800 23.67400
C  28.73300 1.18300 24.79000
C  29.96300 0.77300 24.06500
N  28.00500 -0.28200 29.61000
C  29.05600 -0.58000 28.78000
C  30.24500 -0.86800 29.52500
C  29.92400 -0.56000 30.93700
C  28.52000 -0.19800 30.89800
C  31.58600 -1.33700 28.93500
C  30.40700 -0.48700 32.33900
O  31.55800 -0.58600 32.79700
C  29.11500 -0.11100 33.17500
C  29.05800 -1.28400 34.10300
O  28.53100 -2.37500 33.92200
O  29.56000 -0.97800 35.26800
C  29.75400 -2.03800 36.28700
H  22.46700 0.52900 31.98000
H  23.69600 0.81600 25.54300
H  29.79300 -0.76400 26.76400
H  26.26300 -0.69600 34.33700
H  23.82700 1.11200 33.72400
H  24.21800 -1.88400 34.26700
H  22.99700 -1.39000 33.13900
H  22.99100 -0.72400 34.77100
H  25.46900 1.94600 35.06700
H  26.90100 2.23700 34.06700
H  28.23400 1.84700 35.49000
H  27.27900 0.42100 36.19200
H  19.92700 1.58400 29.80500
H  20.67800 0.53600 31.00100
H  19.76300 -0.13800 29.66800
H  19.43300 1.90200 27.71600
H  19.18900 0.27500 27.36300
H  18.97400 1.53500 26.07900
H  26.25300 1.68100 24.69200
H  27.96600 -0.74800 24.52500
H  24.56100 -0.46700 23.92500
H  26.08600 -0.97800 23.28400
H  25.56500 0.53500 22.79400
H  29.00400 1.58600 25.76500
H  28.34900 1.97700 24.15000
H  30.78000 1.14300 24.68400
H  29.93300 1.13400 23.03700
H  30.14200 -0.30200 24.03500
H  31.60000 -2.42600 28.91000
H  32.38900 -0.93100 29.55000
H  31.71700 -1.01400 27.90200
H  29.35100 0.80400 33.71800
H  28.83300 -2.53300 36.59300
H  30.27100 -1.70300 37.18600
H  30.41000 -2.86500 36.01700


