%nproc=24
%mem=175gb
#p PBE1PBE/Def2SVP td=(nstates=5) density=(transition=1)

TDDFT excited states in gaussian

0 1
Mg 46.93600 15.62500 28.05800
C  44.93200 15.29600 30.93700
C  49.09000 17.55900 29.83300
C  48.76000 16.00400 25.23500
C  44.45800 14.02100 26.22900
N  46.95800 16.41700 30.08200
C  46.09700 16.05900 31.12300
C  46.62800 16.60100 32.41600
C  47.62900 17.68000 31.93900
C  47.92100 17.18200 30.50000
C  47.12800 19.15800 31.89100
C  47.27700 15.54600 33.38900
C  46.82300 15.65300 34.81000
H  47.91800 15.57200 35.89000
N  48.69300 16.53500 27.65600
C  49.51600 17.23100 28.55700
C  50.69200 17.65500 27.90800
C  50.64200 17.20000 26.50700
C  49.36600 16.54900 26.42000
C  51.74600 18.54700 28.49600
C  51.62200 17.40800 25.27200
O  51.37900 16.91300 24.19700
C  52.94200 18.14800 25.43500
N  46.59000 15.18000 25.99700
C  47.50700 15.46300 25.03600
C  46.95600 15.01700 23.59800
C  45.70400 14.10600 23.96500
C  45.55200 14.44900 25.50800
C  46.57100 16.16300 22.62200
C  45.92300 12.57300 23.70500
C  44.84800 12.01100 22.87300
N  45.05500 14.86000 28.45700
C  44.20200 14.13300 27.62800
C  43.05900 13.68500 28.37600
C  43.29100 14.14000 29.65800
C  44.47900 14.80000 29.68300
C  41.94600 12.80400 27.75100
C  42.74500 14.20900 31.00100
O  41.65000 13.85600 31.38000
C  43.81000 15.00600 31.90600
C  43.16000 16.20600 32.46400
O  42.63000 17.11600 31.77400
O  43.20400 16.12500 33.82500
C  42.27100 17.04800 34.52400
H  49.71300 18.20600 30.45400
H  49.27600 16.09400 24.27700
H  43.65900 13.58300 25.62800
H  45.89800 17.17200 32.99100
H  48.53800 17.72600 32.53900
H  46.41200 19.40800 32.67500
H  46.69600 19.31300 30.90200
H  47.90500 19.92200 31.89600
H  48.35200 15.68900 33.28100
H  47.12000 14.52600 33.03700
H  46.11600 14.82500 34.86400
H  46.37400 16.63200 34.97700
H  52.68800 18.06100 28.75100
H  51.39900 18.92200 29.45800
H  52.04800 19.43100 27.93500
H  53.46800 18.01800 24.49000
H  53.47200 17.83200 26.33400
H  52.75100 19.17700 25.74100
H  47.74100 14.50200 23.04400
H  44.84000 14.47300 23.40900
H  46.63200 17.17800 23.01600
H  45.55400 16.07500 22.23900
H  47.24700 16.08600 21.77000
H  45.87800 12.05000 24.66100
H  46.85000 12.32800 23.18700
H  45.20700 11.93900 21.84600
H  43.86300 12.47600 22.89300
H  44.58300 11.02200 23.24700
H  42.31900 12.37000 26.82300
H  41.00000 13.34300 27.68200
H  41.83700 11.97900 28.45400
H  44.19600 14.38400 32.71400
H  42.26000 16.83600 35.59300
H  41.27900 16.75800 34.17700
H  42.55700 18.06000 34.23600
Mg 7.63600 56.80200 41.94500
C  6.62500 53.44600 41.38500
C  10.68100 55.97500 40.45800
C  8.03200 60.02500 41.40500
C  4.22800 57.38500 43.14900
N  8.45000 54.91300 40.78100
C  7.95700 53.66100 40.95000
C  8.99000 52.64800 40.49000
C  10.32900 53.33300 40.76400
C  9.81400 54.85400 40.60800
C  10.97600 53.14900 42.13800
C  8.68800 52.22300 38.98700
C  8.78600 50.76200 38.78500
H  9.47200 50.26400 37.49800
N  9.15000 57.91900 40.99500
C  10.37200 57.38400 40.51700
C  11.15700 58.50500 40.06500
C  10.49600 59.72000 40.38700
C  9.15900 59.29200 40.93300
C  12.51600 58.28800 39.40700
C  10.98000 61.08400 40.08900
O  12.05800 61.21700 39.52300
C  10.25300 62.36800 40.32000
N  6.19300 58.49600 42.17300
C  6.76600 59.71000 42.05200
C  5.81300 60.81300 42.54700
C  4.61500 59.97500 43.27000
C  5.02400 58.52600 42.89900
C  6.51300 61.95400 43.41400
C  3.16600 60.37300 42.84800
C  2.45300 59.49100 41.76700
N  5.85400 55.73100 42.22300
C  4.59600 56.10000 42.77900
C  3.77800 54.83100 43.01200
C  4.55200 53.84100 42.42800
C  5.79000 54.43400 41.99000
C  2.39800 54.58300 43.65100
C  4.62700 52.43800 42.17000
O  3.86200 51.52600 42.48800
C  5.87100 52.24300 41.37900
C  5.33600 51.93400 39.96200
O  4.91100 52.73800 39.13500
O  5.35200 50.52000 39.80700
C  4.79600 49.97200 38.63700
H  11.68700 55.76400 40.08900
H  8.33200 61.07300 41.34400
H  3.25200 57.43300 43.63500
H  9.01800 51.75000 41.10700
H  11.18700 53.14700 40.11900
H  10.60100 52.28700 42.68900
H  11.03000 54.09000 42.68600
H  12.00300 52.89400 41.87400
H  9.43500 52.68300 38.34000
H  7.77500 52.65300 38.57500
H  7.73900 50.46500 38.83400
H  9.33600 50.33800 39.62500
H  13.35000 58.53400 40.06400
H  12.53800 58.83400 38.46500
H  12.64500 57.23800 39.14400
H  10.18000 62.52800 41.39600
H  9.25600 62.43600 39.88300
H  10.86800 63.22900 40.06100
H  5.41300 61.22100 41.61900
H  4.75100 60.04000 44.34900
H  7.57600 62.02500 43.18400
H  6.34900 61.97700 44.49200
H  5.91600 62.83300 43.16600
H  3.09900 61.41000 42.52000
H  2.61700 60.24800 43.78100
H  1.86900 60.30400 41.33500
H  1.78000 58.70400 42.10800
H  3.21700 59.14200 41.07200
H  2.47400 53.89100 44.48900
H  1.98400 53.99700 42.83100
H  1.91500 55.55200 43.77500
H  6.40600 51.37000 41.75300
H  4.82800 48.88300 38.58500
H  5.36500 50.36200 37.79400
H  3.76000 50.31200 38.63400


