%nproc=24
%mem=175gb
#p PBE1PBE/Def2SVP td=(nstates=5) density=(transition=1)

TDDFT excited states in gaussian

0 1
Mg 35.71600 1.25500 29.88400
C  33.26000 2.26900 32.06200
C  37.97500 1.18400 32.63200
C  38.34600 0.78200 27.81300
C  33.67000 1.64600 27.25500
N  35.61600 1.68700 32.10200
C  34.47500 2.10300 32.73400
C  34.68900 2.20300 34.24600
C  36.27600 2.03500 34.33300
C  36.65900 1.61200 32.94500
C  37.02900 3.30200 34.88200
C  33.91200 1.08400 35.07900
C  33.16700 1.39000 36.35600
H  33.84300 2.22100 37.38800
N  37.88700 0.95800 30.15700
C  38.55000 0.78800 31.32200
C  39.89100 0.36100 31.10100
C  40.02700 0.20000 29.68600
C  38.73000 0.72700 29.16600
C  40.80200 0.22400 32.27800
C  41.26400 -0.16900 28.88500
O  41.33400 -0.00500 27.66300
C  42.48400 -0.74400 29.58300
N  36.02000 1.36700 27.77900
C  37.17800 1.00100 27.16900
C  36.98100 0.89100 25.65800
C  35.41500 1.00100 25.51900
C  34.99600 1.35200 26.93300
C  37.78500 1.78800 24.67100
C  34.66500 -0.24600 24.88900
C  34.10400 -1.33400 25.78000
N  33.89900 1.92200 29.64700
C  33.07800 1.91600 28.54800
C  31.77800 2.41500 28.81300
C  31.77700 2.52500 30.20000
C  33.07800 2.19300 30.65800
C  30.56200 2.67700 27.93400
C  31.02900 2.87500 31.32700
O  29.88700 3.29400 31.37200
C  31.95500 2.75800 32.66400
C  32.02000 4.07800 33.27900
O  32.54800 5.09200 32.78100
O  31.38700 4.14700 34.48000
C  31.10000 5.46600 35.05500
H  38.54900 1.11500 33.55800
H  39.09900 0.35600 27.14700
H  32.90400 1.43100 26.50800
H  34.28100 3.15500 34.58800
H  36.55500 1.25900 35.04600
H  37.56800 3.00200 35.78000
H  36.24700 4.05100 35.00800
H  37.83800 3.67300 34.25200
H  34.72200 0.38900 35.30100
H  33.30700 0.45900 34.42300
H  32.77000 0.47000 36.78500
H  32.33500 2.02700 36.05800
H  41.31400 -0.72500 32.12300
H  40.23000 0.11700 33.20000
H  41.52900 1.02400 32.42200
H  42.25000 -1.48700 30.34600
H  43.15800 0.06500 29.86800
H  42.99900 -1.30000 28.79900
H  37.38700 -0.09500 25.43100
H  35.10800 1.75000 24.79000
H  37.12800 2.52600 24.21100
H  38.16400 1.12200 23.89600
H  38.57800 2.24100 25.26500
H  35.37100 -0.71500 24.20500
H  33.81300 0.09600 24.30100
H  34.44300 -2.32400 25.47400
H  33.01400 -1.34700 25.82000
H  34.48200 -1.09900 26.77500
H  30.79100 2.37600 26.91100
H  30.30400 3.73500 27.98700
H  29.72700 2.09100 28.31700
H  31.32600 2.10900 33.27400
H  30.27200 5.47100 35.76400
H  31.01600 6.28300 34.33900
H  31.93600 5.66400 35.72600
Mg 41.12800 41.85700 26.98600
C  40.12700 44.17900 29.64000
C  41.31000 39.41000 29.48700
C  42.36200 39.82100 24.75900
C  40.70600 44.36300 24.68300
N  40.96700 41.85000 29.29200
C  40.42100 42.87500 30.17300
C  40.33700 42.44400 31.65300
C  40.94600 40.93000 31.52100
C  41.11600 40.67200 30.01100
C  42.22400 40.71400 32.30800
C  38.87900 42.58800 32.18500
C  38.60800 41.92700 33.50300
H  37.80600 42.65600 34.55800
N  41.79000 39.86100 27.08100
C  41.78200 39.01000 28.19200
C  42.26600 37.68700 27.80200
C  42.58400 37.77600 26.38500
C  42.25600 39.19200 25.97700
C  42.31400 36.43000 28.74600
C  43.16500 36.78400 25.44300
O  43.35700 36.97800 24.25000
C  43.44600 35.41200 25.89800
N  41.39000 42.02100 25.04500
C  42.03300 41.09600 24.33000
C  42.18900 41.49200 22.84300
C  41.28100 42.70200 22.76900
C  41.15000 43.12300 24.28400
C  43.62900 41.80100 22.45000
C  39.92300 42.66800 22.11700
C  38.93300 41.74000 22.78800
N  40.64100 43.87900 27.09600
C  40.41100 44.75400 26.01900
C  40.01000 46.03800 26.53900
C  39.83600 45.76900 27.92100
C  40.24100 44.45600 28.22800
C  39.64600 47.28300 25.78400
C  39.34100 46.43200 29.16700
O  38.79000 47.54000 29.34100
C  39.55800 45.41800 30.28800
C  40.41800 46.03500 31.39300
O  41.61900 46.43600 31.36700
O  39.69400 45.95900 32.54600
C  40.38200 46.43100 33.76900
H  41.17000 38.61400 30.22000
H  42.83200 39.17800 24.01200
H  40.57600 45.21400 24.01100
H  40.93200 43.17900 32.19500
H  40.17200 40.21500 31.80000
H  42.06000 39.90200 33.01700
H  42.40500 41.63800 32.85600
H  43.16100 40.69100 31.75200
H  38.23700 42.28000 31.35900
H  38.65800 43.64900 32.30200
H  39.47300 41.65400 34.10700
H  37.99100 41.04400 33.33900
H  41.63300 35.71400 28.28500
H  41.97100 36.63500 29.76000
H  43.34800 36.08500 28.73700
H  43.92500 35.36100 26.87600
H  44.12500 35.02700 25.13800
H  42.45600 34.98600 26.05800
H  41.84700 40.64300 22.25100
H  41.73700 43.52300 22.21500
H  43.81400 41.38100 21.46200
H  44.33400 41.35700 23.15200
H  43.75500 42.87300 22.29400
H  40.06700 42.45700 21.05700
H  39.41200 43.62400 22.23000
H  38.39800 41.12300 22.06700
H  38.14200 42.27600 23.31300
H  39.38000 41.04100 23.49500
H  38.67000 47.63800 26.11400
H  39.60000 47.28100 24.69500
H  40.39300 48.03500 26.03900
H  38.59300 45.21900 30.75500
H  40.75500 45.57700 34.33400
H  39.56300 47.00000 34.20900
H  41.15300 47.17200 33.55400


