%nproc=24
%mem=175gb
#p PBE1PBE/Def2SVP td=(nstates=5) density=(transition=1)

TDDFT excited states in gaussian

0 1
Mg 46.48800 44.18100 43.47500
C  43.15300 43.46100 43.30400
C  47.10800 40.75600 42.73500
C  49.77100 44.92500 43.24200
C  45.73500 47.57600 43.26500
N  45.18800 42.33600 42.67700
C  43.85400 42.27500 42.94800
C  43.32200 40.91600 42.58600
C  44.62300 40.02800 42.36600
C  45.76600 41.06300 42.61200
C  44.58600 38.65100 42.92100
C  42.20900 40.77400 41.44300
C  42.22600 41.75800 40.31100
H  42.13200 41.19200 38.90100
N  48.19100 42.96300 43.28600
C  48.25100 41.62900 43.02600
C  49.60100 41.16100 42.91600
C  50.41700 42.37800 43.18500
C  49.45800 43.50200 43.25700
C  50.07700 39.81200 42.65600
C  51.92500 42.49800 43.35200
O  52.62900 41.58000 43.12100
C  52.68900 43.74400 43.70500
N  47.56100 45.95400 43.15400
C  48.89600 45.98900 43.28400
C  49.46200 47.47200 42.97200
C  48.15100 48.31100 43.36800
C  47.10700 47.23300 43.19900
C  50.71200 47.88700 43.75300
C  48.00000 49.60500 42.54800
C  47.68500 50.93800 43.23700
N  44.79500 45.31200 43.20500
C  44.59800 46.68700 43.17600
C  43.22600 47.01600 43.20700
C  42.57500 45.79800 43.31300
C  43.57500 44.76200 43.30900
C  42.60800 48.38000 43.21500
C  41.37100 45.09400 43.47000
O  40.23700 45.56500 43.52900
C  41.64700 43.57300 43.29900
C  40.96100 42.96000 44.51100
O  40.13800 42.02200 44.45100
O  41.52200 43.52500 45.63200
C  41.27100 42.99100 46.99300
H  47.22800 39.72900 42.38400
H  50.80000 45.16300 42.96500
H  45.50900 48.64400 43.27100
H  42.74600 40.53700 43.43100
H  44.70600 39.88500 41.28900
H  45.47200 38.39300 43.50100
H  44.34100 37.90700 42.16300
H  43.78400 38.58200 43.65600
H  41.18300 40.86000 41.80100
H  42.35800 39.83500 40.90900
H  42.98200 42.53800 40.39500
H  41.27000 42.28200 40.33700
H  49.35900 39.10300 43.06700
H  51.06100 39.59900 43.07200
H  50.12200 39.70100 41.57200
H  51.89900 44.16700 44.32600
H  52.89000 44.37800 42.84200
H  53.62800 43.61700 44.24400
H  49.58000 47.51900 41.88900
H  48.02200 48.62000 44.40500
H  50.38700 48.59700 44.51400
H  51.51000 48.17200 43.06800
H  51.16800 47.06300 44.30100
H  47.21200 49.41800 41.81800
H  48.88600 49.70600 41.92100
H  48.29300 51.80900 42.99200
H  47.59300 50.84600 44.32000
H  46.63600 51.07800 42.97800
H  41.68900 48.46100 43.79600
H  42.39500 48.66700 42.18500
H  43.24900 49.14100 43.66200
H  41.15500 43.34600 42.35400
H  42.16000 43.01500 47.62300
H  40.93100 41.96000 46.89400
H  40.51300 43.43800 47.63500
Mg 15.62100 51.82400 26.04800
C  17.47400 50.60700 28.62800
C  13.11000 52.75700 28.20700
C  13.81500 52.82700 23.36600
C  17.99400 50.42600 23.83300
N  15.23600 51.49000 28.16800
C  16.26900 51.27600 29.02600
C  15.94600 51.61800 30.44100
C  14.40600 52.07300 30.26100
C  14.21100 52.11900 28.78100
C  13.38100 51.07100 30.96200
C  16.88200 52.82900 30.90600
C  17.11300 53.00000 32.40900
H  16.27700 52.29800 33.50800
N  13.77400 52.76600 25.77300
C  12.87200 53.04400 26.81300
C  11.70500 53.64500 26.21000
C  11.90800 53.69900 24.81600
C  13.23300 53.12400 24.62900
C  10.53200 54.15900 27.07700
C  10.86200 54.19000 23.68400
O  11.18100 54.33400 22.49700
C  9.41300 54.55600 23.96000
N  15.93700 51.69300 23.86100
C  14.99700 52.16200 23.00600
C  15.27300 51.71300 21.57200
C  16.82600 51.21000 21.68000
C  17.02200 51.18500 23.20400
C  14.21700 50.69700 20.93700
C  17.94900 52.21900 21.11400
C  19.01900 51.70400 20.16900
N  17.42400 50.77200 26.12100
C  18.25400 50.26800 25.19100
C  19.45700 49.67400 25.85400
C  19.17000 49.86100 27.22700
C  17.86900 50.41600 27.30000
C  20.69200 49.07400 25.28100
C  19.74000 49.61300 28.49800
O  20.83000 49.08800 28.80500
C  18.66300 50.08200 29.47300
C  18.25000 48.96100 30.28600
O  17.83600 47.88700 29.97900
O  18.30900 49.39800 31.60600
C  17.88900 48.52200 32.76600
H  12.38500 53.27700 28.83600
H  13.18500 53.06500 22.50600
H  18.65800 49.80900 23.22500
H  16.01600 50.87800 31.23800
H  14.23400 53.06400 30.68100
H  12.50100 51.52900 31.41300
H  13.92900 50.42000 31.64300
H  12.99700 50.42600 30.17100
H  16.51300 53.78500 30.53400
H  17.84200 52.64500 30.42300
H  17.07200 54.07500 32.58900
H  18.14900 52.74600 32.63000
H  10.69700 54.07400 28.15100
H  9.65000 53.59900 26.76800
H  10.36400 55.20000 26.80000
H  9.47200 55.48000 24.53400
H  8.95500 53.91200 24.71100
H  8.82100 54.48200 23.04800
H  15.27500 52.60400 20.94300
H  16.96000 50.24900 21.18300
H  14.69800 49.77000 20.62400
H  13.70900 51.16400 20.09400
H  13.48400 50.38900 21.68300
H  18.44000 52.77000 21.91600
H  17.40700 53.00700 20.59200
H  19.97700 51.93800 20.63200
H  18.94100 52.12500 19.16700
H  18.97400 50.61500 20.12300
H  20.76700 49.12700 24.19500
H  20.76600 48.01700 25.53800
H  21.55200 49.59200 25.70500
H  19.01800 50.87900 30.12700
H  17.50200 47.57000 32.40200
H  17.07000 48.99900 33.30600
H  18.78800 48.39000 33.36800


