%nproc=24
%mem=175gb
#p PBE1PBE/Def2SVP td=(nstates=5) density=(transition=1)

TDDFT excited states in gaussian

0 1
Mg 40.46600 8.46800 29.02600
C  42.13100 9.82400 31.82300
C  38.27200 6.93100 31.17900
C  38.87200 7.07400 26.41900
C  43.04200 9.56800 26.92900
N  40.22800 8.55200 31.19800
C  40.93100 9.11600 32.17600
C  40.40800 8.90400 33.61200
C  39.36400 7.73500 33.26600
C  39.31400 7.70200 31.75800
C  39.74100 6.39300 33.84500
C  39.69500 10.21300 34.26600
C  39.76000 10.23100 35.79600
H  40.52600 11.44400 36.38400
N  38.67500 7.29000 28.78400
C  37.94400 6.71700 29.85400
C  36.72400 6.18800 29.28700
C  36.85500 6.23500 27.90200
C  38.16400 6.90300 27.61900
C  35.64600 5.49400 30.09800
C  35.92100 5.81300 26.79100
O  36.21800 6.02700 25.65200
C  34.58600 5.19600 27.06600
N  40.97200 8.15700 27.00800
C  40.11100 7.61300 26.10000
C  40.78500 7.77300 24.70900
C  41.70800 8.97300 24.82300
C  41.98000 8.92500 26.34500
C  41.61300 6.52600 24.40200
C  41.12800 10.25100 24.34100
C  39.73300 10.63200 24.77100
N  42.22500 9.51500 29.25500
C  43.18900 9.89200 28.33900
C  44.24200 10.64200 29.04100
C  43.84000 10.65000 30.38800
C  42.65100 9.97700 30.46100
C  45.46200 11.19800 28.44400
C  44.09900 11.19900 31.69200
O  45.01500 11.97300 32.09800
C  42.93800 10.67900 32.66500
C  43.61600 9.87100 33.74100
O  44.43500 9.03300 33.50500
O  43.17500 10.12500 35.06800
C  43.60100 9.11400 36.08300
H  37.59700 6.39300 31.84700
H  38.44200 6.55400 25.56000
H  43.78300 10.08700 26.31700
H  41.23500 8.65200 34.27700
H  38.42900 8.08400 33.70600
H  39.16600 6.28900 34.76500
H  40.81800 6.26800 33.95900
H  39.27800 5.67800 33.16500
H  38.64200 10.24000 33.98400
H  40.12300 11.12800 33.85600
H  40.22100 9.26500 36.00300
H  38.77200 10.15700 36.25000
H  35.82300 5.83000 31.11900
H  35.93800 4.44600 30.03700
H  34.64100 5.77100 29.77900
H  34.06100 6.07300 27.44500
H  34.59100 4.42700 27.83800
H  34.14900 4.81100 26.14400
H  40.09900 7.86800 23.86800
H  42.63400 8.90500 24.25300
H  42.69600 6.55200 24.52300
H  41.40100 6.24300 23.37100
H  41.23400 5.71200 25.02100
H  41.17500 10.33500 23.25500
H  41.80700 11.00800 24.73300
H  39.85400 11.49300 25.42900
H  39.05700 9.95800 25.29800
H  39.19800 10.99600 23.89400
H  46.11400 10.36800 28.17200
H  45.85400 11.85300 29.22200
H  45.24700 11.72600 27.51400
H  42.43100 11.58700 32.99200
H  44.64200 9.27500 36.36300
H  43.48400 8.08500 35.74000
H  43.10400 9.17100 37.05100
Mg 7.63600 56.80200 41.94500
C  6.62500 53.44600 41.38500
C  10.68100 55.97500 40.45800
C  8.03200 60.02500 41.40500
C  4.22800 57.38500 43.14900
N  8.45000 54.91300 40.78100
C  7.95700 53.66100 40.95000
C  8.99000 52.64800 40.49000
C  10.32900 53.33300 40.76400
C  9.81400 54.85400 40.60800
C  10.97600 53.14900 42.13800
C  8.68800 52.22300 38.98700
C  8.78600 50.76200 38.78500
H  9.47200 50.26400 37.49800
N  9.15000 57.91900 40.99500
C  10.37200 57.38400 40.51700
C  11.15700 58.50500 40.06500
C  10.49600 59.72000 40.38700
C  9.15900 59.29200 40.93300
C  12.51600 58.28800 39.40700
C  10.98000 61.08400 40.08900
O  12.05800 61.21700 39.52300
C  10.25300 62.36800 40.32000
N  6.19300 58.49600 42.17300
C  6.76600 59.71000 42.05200
C  5.81300 60.81300 42.54700
C  4.61500 59.97500 43.27000
C  5.02400 58.52600 42.89900
C  6.51300 61.95400 43.41400
C  3.16600 60.37300 42.84800
C  2.45300 59.49100 41.76700
N  5.85400 55.73100 42.22300
C  4.59600 56.10000 42.77900
C  3.77800 54.83100 43.01200
C  4.55200 53.84100 42.42800
C  5.79000 54.43400 41.99000
C  2.39800 54.58300 43.65100
C  4.62700 52.43800 42.17000
O  3.86200 51.52600 42.48800
C  5.87100 52.24300 41.37900
C  5.33600 51.93400 39.96200
O  4.91100 52.73800 39.13500
O  5.35200 50.52000 39.80700
C  4.79600 49.97200 38.63700
H  11.68700 55.76400 40.08900
H  8.33200 61.07300 41.34400
H  3.25200 57.43300 43.63500
H  9.01800 51.75000 41.10700
H  11.18700 53.14700 40.11900
H  10.60100 52.28700 42.68900
H  11.03000 54.09000 42.68600
H  12.00300 52.89400 41.87400
H  9.43500 52.68300 38.34000
H  7.77500 52.65300 38.57500
H  7.73900 50.46500 38.83400
H  9.33600 50.33800 39.62500
H  13.35000 58.53400 40.06400
H  12.53800 58.83400 38.46500
H  12.64500 57.23800 39.14400
H  10.18000 62.52800 41.39600
H  9.25600 62.43600 39.88300
H  10.86800 63.22900 40.06100
H  5.41300 61.22100 41.61900
H  4.75100 60.04000 44.34900
H  7.57600 62.02500 43.18400
H  6.34900 61.97700 44.49200
H  5.91600 62.83300 43.16600
H  3.09900 61.41000 42.52000
H  2.61700 60.24800 43.78100
H  1.86900 60.30400 41.33500
H  1.78000 58.70400 42.10800
H  3.21700 59.14200 41.07200
H  2.47400 53.89100 44.48900
H  1.98400 53.99700 42.83100
H  1.91500 55.55200 43.77500
H  6.40600 51.37000 41.75300
H  4.82800 48.88300 38.58500
H  5.36500 50.36200 37.79400
H  3.76000 50.31200 38.63400


