%nproc=24
%mem=175gb
#p PBE1PBE/Def2SVP td=(nstates=5) density=(transition=1)

TDDFT excited states in gaussian

0 1
Mg 2.79300 -0.99900 44.50000
C  6.05500 -0.17400 43.38400
C  1.60600 1.42400 42.43900
C  -0.30000 -2.33900 44.94400
C  4.15400 -3.74300 46.12200
N  3.83100 0.31200 42.98000
C  5.15200 0.58300 42.74000
C  5.32600 1.71500 41.79700
C  3.88200 2.40600 41.78900
C  3.05100 1.33800 42.41400
C  3.87900 3.72200 42.55000
C  5.83700 1.13000 40.47100
C  7.17200 1.73800 39.86600
H  7.22000 2.30200 38.41400
N  0.88600 -0.54700 43.86000
C  0.60800 0.57500 43.06700
C  -0.81500 0.72700 43.01300
C  -1.42800 -0.37100 43.70600
C  -0.26400 -1.10400 44.27200
C  -1.44600 1.92200 42.31000
C  -2.89700 -0.69100 43.87000
O  -3.66200 0.20700 43.41300
C  -3.55500 -1.99100 44.41300
N  1.99700 -2.80800 45.42300
C  0.68200 -3.10900 45.50100
C  0.40600 -4.46500 46.20300
C  1.84700 -4.85700 46.68000
C  2.74500 -3.73600 45.97300
C  -0.59100 -4.26300 47.33000
C  2.30300 -6.22900 46.28700
C  2.45600 -7.17500 47.44700
N  4.64000 -1.73900 44.89100
C  5.11000 -2.84400 45.61200
C  6.47200 -2.80600 45.78400
C  6.89300 -1.74700 44.95400
C  5.75400 -1.18800 44.37900
C  7.21700 -3.66700 46.78200
C  8.08600 -0.96000 44.54300
O  9.22400 -1.08600 44.87400
C  7.50800 0.01200 43.44600
C  8.17400 1.35500 43.65200
O  9.07700 1.80400 42.94600
O  7.57500 2.04000 44.73700
C  8.09900 3.39600 44.89800
H  1.22700 2.33000 41.96100
H  -1.28000 -2.75100 45.19600
H  4.63400 -4.67900 46.41300
H  6.07700 2.40100 42.18900
H  3.61200 2.61400 40.75400
H  4.50800 3.70600 43.43900
H  2.87200 3.89300 42.93200
H  4.11600 4.58800 41.93200
H  5.03800 1.25300 39.74000
H  5.94100 0.04500 40.47900
H  7.81400 0.85800 39.91300
H  7.65200 2.40300 40.58300
H  -1.04200 2.04400 41.30500
H  -1.16400 2.79800 42.89400
H  -2.51800 1.88200 42.11200
H  -3.31300 -1.96500 45.47500
H  -3.08800 -2.84600 43.92400
H  -4.62700 -2.03100 44.21800
H  -0.01900 -5.22600 45.54900
H  1.95500 -4.64800 47.74400
H  -1.44700 -3.72600 46.92100
H  -0.11100 -3.66200 48.10300
H  -0.92100 -5.12200 47.91300
H  3.28200 -6.24400 45.80800
H  1.69000 -6.76000 45.55900
H  1.86400 -8.06400 47.23300
H  2.03500 -6.78100 48.37200
H  3.49000 -7.42400 47.68800
H  8.18600 -3.18800 46.92600
H  7.36400 -4.68500 46.42200
H  6.59100 -3.65900 47.67400
H  7.98500 -0.36600 42.54100
H  7.35600 4.03900 45.37000
H  8.23900 3.88500 43.93500
H  9.04800 3.42700 45.43400
Mg -5.09800 24.63300 26.68400
C  -3.70200 26.36700 29.52200
C  -6.11300 22.14300 28.93500
C  -6.48000 23.09600 24.13300
C  -3.72900 27.06700 24.58100
N  -4.87100 24.33000 29.01500
C  -4.47600 25.23800 29.94600
C  -4.87000 24.81900 31.35300
C  -5.34300 23.26900 31.18300
C  -5.42800 23.22100 29.63000
C  -4.42000 22.22500 31.86000
C  -5.97200 25.74300 31.97300
C  -5.56400 26.39400 33.32000
H  -6.48200 25.91600 34.58700
N  -6.12400 22.92100 26.55900
C  -6.45400 21.95500 27.56900
C  -7.23800 20.80800 27.05300
C  -7.37200 21.15200 25.66800
C  -6.65700 22.41400 25.41400
C  -7.70400 19.61500 27.89000
C  -8.01000 20.37100 24.58300
O  -8.30600 20.80000 23.47300
C  -8.47200 18.93600 24.90400
N  -5.23600 25.12700 24.71500
C  -5.84300 24.30800 23.82600
C  -5.57400 24.69000 22.39700
C  -4.73400 25.98700 22.49800
C  -4.58300 26.13300 24.02900
C  -4.97900 23.58700 21.54700
C  -5.55400 27.25800 21.86300
C  -4.76800 28.10300 20.72000
N  -3.71900 26.23300 26.92800
C  -3.33300 27.18000 25.94900
C  -2.55400 28.22500 26.62300
C  -2.81300 27.99000 27.99900
C  -3.40400 26.73200 28.12600
C  -1.71900 29.35800 26.03400
C  -2.39200 28.46300 29.34800
O  -1.66000 29.39300 29.78700
C  -3.08100 27.46800 30.36000
C  -2.03500 26.94900 31.30200
O  -0.94600 26.57900 30.96500
O  -2.47500 27.07900 32.59000
C  -1.38400 26.91100 33.58300
H  -6.28600 21.33800 29.65200
H  -6.91400 22.63300 23.24400
H  -3.32400 27.85900 23.94800
H  -3.94900 24.82500 31.93600
H  -6.36100 23.10200 31.53600
H  -3.94100 21.58900 31.11500
H  -4.98800 21.61200 32.56100
H  -3.64700 22.62700 32.51500
H  -6.89500 25.19600 32.16700
H  -6.22100 26.57200 31.31000
H  -5.77000 27.46400 33.35800
H  -4.50500 26.32600 33.56700
H  -7.71300 19.74200 28.97300
H  -7.20000 18.67100 27.68300
H  -8.74200 19.45800 27.59500
H  -7.62000 18.31700 25.18500
H  -9.03200 18.48700 24.08300
H  -9.15600 18.98900 25.75100
H  -6.53500 24.86100 21.91000
H  -3.75100 25.85800 22.04600
H  -5.68000 23.16900 20.82400
H  -4.66700 22.69800 22.09500
H  -4.09700 23.98900 21.04800
H  -5.86900 27.99500 22.60100
H  -6.48500 26.95600 21.38400
H  -4.00100 27.42900 20.33800
H  -4.32800 29.01700 21.12100
H  -5.40200 28.28200 19.85200
H  -1.71900 30.24300 26.67000
H  -2.23000 29.70200 25.13400
H  -0.77900 28.87000 25.77600
H  -3.74400 28.08300 30.96800
H  -0.90300 25.95500 33.37700
H  -1.91800 26.79500 34.52600
H  -0.58100 27.64700 33.62200


