%nproc=24
%mem=175gb
#p PBE1PBE/Def2SVP td=(nstates=5) density=(transition=1)

TDDFT excited states in gaussian

0 1
Mg 2.79300 -0.99900 44.50000
C  6.05500 -0.17400 43.38400
C  1.60600 1.42400 42.43900
C  -0.30000 -2.33900 44.94400
C  4.15400 -3.74300 46.12200
N  3.83100 0.31200 42.98000
C  5.15200 0.58300 42.74000
C  5.32600 1.71500 41.79700
C  3.88200 2.40600 41.78900
C  3.05100 1.33800 42.41400
C  3.87900 3.72200 42.55000
C  5.83700 1.13000 40.47100
C  7.17200 1.73800 39.86600
H  7.22000 2.30200 38.41400
N  0.88600 -0.54700 43.86000
C  0.60800 0.57500 43.06700
C  -0.81500 0.72700 43.01300
C  -1.42800 -0.37100 43.70600
C  -0.26400 -1.10400 44.27200
C  -1.44600 1.92200 42.31000
C  -2.89700 -0.69100 43.87000
O  -3.66200 0.20700 43.41300
C  -3.55500 -1.99100 44.41300
N  1.99700 -2.80800 45.42300
C  0.68200 -3.10900 45.50100
C  0.40600 -4.46500 46.20300
C  1.84700 -4.85700 46.68000
C  2.74500 -3.73600 45.97300
C  -0.59100 -4.26300 47.33000
C  2.30300 -6.22900 46.28700
C  2.45600 -7.17500 47.44700
N  4.64000 -1.73900 44.89100
C  5.11000 -2.84400 45.61200
C  6.47200 -2.80600 45.78400
C  6.89300 -1.74700 44.95400
C  5.75400 -1.18800 44.37900
C  7.21700 -3.66700 46.78200
C  8.08600 -0.96000 44.54300
O  9.22400 -1.08600 44.87400
C  7.50800 0.01200 43.44600
C  8.17400 1.35500 43.65200
O  9.07700 1.80400 42.94600
O  7.57500 2.04000 44.73700
C  8.09900 3.39600 44.89800
H  1.22700 2.33000 41.96100
H  -1.28000 -2.75100 45.19600
H  4.63400 -4.67900 46.41300
H  6.07700 2.40100 42.18900
H  3.61200 2.61400 40.75400
H  4.50800 3.70600 43.43900
H  2.87200 3.89300 42.93200
H  4.11600 4.58800 41.93200
H  5.03800 1.25300 39.74000
H  5.94100 0.04500 40.47900
H  7.81400 0.85800 39.91300
H  7.65200 2.40300 40.58300
H  -1.04200 2.04400 41.30500
H  -1.16400 2.79800 42.89400
H  -2.51800 1.88200 42.11200
H  -3.31300 -1.96500 45.47500
H  -3.08800 -2.84600 43.92400
H  -4.62700 -2.03100 44.21800
H  -0.01900 -5.22600 45.54900
H  1.95500 -4.64800 47.74400
H  -1.44700 -3.72600 46.92100
H  -0.11100 -3.66200 48.10300
H  -0.92100 -5.12200 47.91300
H  3.28200 -6.24400 45.80800
H  1.69000 -6.76000 45.55900
H  1.86400 -8.06400 47.23300
H  2.03500 -6.78100 48.37200
H  3.49000 -7.42400 47.68800
H  8.18600 -3.18800 46.92600
H  7.36400 -4.68500 46.42200
H  6.59100 -3.65900 47.67400
H  7.98500 -0.36600 42.54100
H  7.35600 4.03900 45.37000
H  8.23900 3.88500 43.93500
H  9.04800 3.42700 45.43400
Mg 25.47400 50.80800 26.36000
C  23.42800 51.77500 29.14000
C  27.78000 49.80000 28.46900
C  27.48600 50.74800 23.72700
C  22.89100 52.35600 24.24800
N  25.55500 50.75400 28.55700
C  24.64000 51.22200 29.52100
C  25.12200 51.01800 31.00700
C  26.56400 50.28500 30.68300
C  26.67300 50.24400 29.16200
C  27.79400 51.06900 31.31300
C  24.14500 50.22000 31.93900
C  24.75600 49.66700 33.22100
H  24.21600 50.30100 34.51600
N  27.35300 50.24000 26.12300
C  28.22400 49.80700 27.09500
C  29.50900 49.42000 26.55200
C  29.38500 49.70200 25.13400
C  27.97500 50.19600 24.94200
C  30.61900 48.81900 27.27800
C  30.38700 49.50900 24.00900
O  30.13300 49.66800 22.84800
C  31.78500 49.18000 24.46100
N  25.24600 51.52100 24.28400
C  26.25500 51.32600 23.39800
C  25.83300 51.76400 21.97000
C  24.32300 52.13900 22.16700
C  24.10500 51.95100 23.65600
C  26.64800 52.90800 21.27600
C  23.28700 51.29000 21.34900
C  23.20200 51.69600 19.86100
N  23.59000 51.86200 26.56100
C  22.66400 52.33500 25.66000
C  21.52300 52.77100 26.36200
C  21.75600 52.64400 27.68000
C  23.06700 52.09200 27.80400
C  20.26700 53.21900 25.62600
C  21.30400 52.86100 29.05800
O  20.28500 53.34300 29.48100
C  22.42600 52.30600 30.05900
C  23.02400 53.48800 30.75300
O  23.93000 54.23000 30.44700
O  22.33300 53.57900 31.94500
C  22.72800 54.66700 32.87100
H  28.62400 49.48900 29.08800
H  28.23800 50.84300 22.94000
H  22.18300 52.67600 23.48000
H  25.36700 52.00000 31.41200
H  26.54900 49.29900 31.14800
H  28.47500 50.35700 31.77900
H  27.60200 51.88000 32.01500
H  28.41300 51.49500 30.52400
H  23.78800 49.47000 31.23200
H  23.21100 50.69500 32.24000
H  25.83400 49.82400 33.19700
H  24.45000 48.62700 33.33100
H  30.63000 47.83900 26.80100
H  30.42700 48.80700 28.35100
H  31.61000 49.25400 27.15000
H  31.91600 48.09800 24.46700
H  32.15000 49.82600 25.26000
H  32.40300 49.70200 23.73100
H  25.75100 50.83500 21.40500
H  24.20500 53.21400 22.02900
H  26.08400 53.79400 20.98300
H  26.95200 52.49600 20.31400
H  27.50400 53.28000 21.83900
H  22.29300 51.43100 21.77200
H  23.59200 50.25400 21.50300
H  23.57200 52.71200 19.72200
H  22.15600 51.57400 19.58000
H  23.82700 51.09700 19.19800
H  19.37700 53.06800 26.23700
H  20.20500 52.68100 24.68000
H  20.36300 54.25800 25.31000
H  22.01700 51.57800 30.76000
H  21.79500 55.04700 33.28700
H  23.27800 55.48100 32.39900
H  23.31400 54.08500 33.58300


