%nproc=24
%mem=175gb
#p PBE1PBE/Def2SVP td=(nstates=5) density=(transition=1)

TDDFT excited states in gaussian

0 1
Mg 26.07000 0.32300 29.17500
C  27.93000 0.00300 32.17200
C  23.23700 0.37300 31.22200
C  24.20000 0.73500 26.50800
C  28.89900 -0.55900 27.35600
N  25.68800 0.23300 31.42600
C  26.58700 0.25300 32.44900
C  25.99300 0.25100 33.86800
C  24.43500 0.24800 33.45400
C  24.48700 0.27000 31.95500
C  23.63400 -1.02300 33.94300
C  26.39900 1.50900 34.70300
C  27.30600 1.47800 35.92700
H  27.07500 2.41400 37.10600
N  24.00400 0.60600 28.87400
C  22.98600 0.52400 29.83500
C  21.72400 0.61300 29.13500
C  21.97300 0.88000 27.79100
C  23.44300 0.80400 27.68300
C  20.46800 0.64800 29.93700
C  21.02800 1.08200 26.60700
O  21.39200 1.28100 25.44400
C  19.58500 1.18400 26.91000
N  26.42900 0.02500 27.20000
C  25.57000 0.46200 26.23000
C  26.30100 0.60400 24.85200
C  27.70600 0.10100 25.15700
C  27.68000 -0.24400 26.67200
C  25.55900 -0.10800 23.67400
C  28.73300 1.18300 24.79000
C  29.96300 0.77300 24.06500
N  28.00500 -0.28200 29.61000
C  29.05600 -0.58000 28.78000
C  30.24500 -0.86800 29.52500
C  29.92400 -0.56000 30.93700
C  28.52000 -0.19800 30.89800
C  31.58600 -1.33700 28.93500
C  30.40700 -0.48700 32.33900
O  31.55800 -0.58600 32.79700
C  29.11500 -0.11100 33.17500
C  29.05800 -1.28400 34.10300
O  28.53100 -2.37500 33.92200
O  29.56000 -0.97800 35.26800
C  29.75400 -2.03800 36.28700
H  22.46700 0.52900 31.98000
H  23.69600 0.81600 25.54300
H  29.79300 -0.76400 26.76400
H  26.26300 -0.69600 34.33700
H  23.82700 1.11200 33.72400
H  24.21800 -1.88400 34.26700
H  22.99700 -1.39000 33.13900
H  22.99100 -0.72400 34.77100
H  25.46900 1.94600 35.06700
H  26.90100 2.23700 34.06700
H  28.23400 1.84700 35.49000
H  27.27900 0.42100 36.19200
H  19.92700 1.58400 29.80500
H  20.67800 0.53600 31.00100
H  19.76300 -0.13800 29.66800
H  19.43300 1.90200 27.71600
H  19.18900 0.27500 27.36300
H  18.97400 1.53500 26.07900
H  26.25300 1.68100 24.69200
H  27.96600 -0.74800 24.52500
H  24.56100 -0.46700 23.92500
H  26.08600 -0.97800 23.28400
H  25.56500 0.53500 22.79400
H  29.00400 1.58600 25.76500
H  28.34900 1.97700 24.15000
H  30.78000 1.14300 24.68400
H  29.93300 1.13400 23.03700
H  30.14200 -0.30200 24.03500
H  31.60000 -2.42600 28.91000
H  32.38900 -0.93100 29.55000
H  31.71700 -1.01400 27.90200
H  29.35100 0.80400 33.71800
H  28.83300 -2.53300 36.59300
H  30.27100 -1.70300 37.18600
H  30.41000 -2.86500 36.01700
Mg 52.53200 24.27200 45.27800
C  49.69500 26.14500 43.97100
C  51.04500 21.43900 44.03200
C  55.55800 22.86200 45.08400
C  53.78600 27.15600 46.56500
N  50.65200 23.90000 43.94600
C  49.60000 24.82500 43.60600
C  48.41500 24.05300 43.01900
C  48.70000 22.56700 43.38700
C  50.22600 22.57000 43.84000
C  47.76900 22.00700 44.56400
C  48.04400 24.34300 41.59400
C  49.09500 25.06000 40.71400
H  48.96900 25.39700 39.21700
N  53.20200 22.33000 44.76700
C  52.42300 21.31600 44.25500
C  53.27600 20.09300 44.13100
C  54.57100 20.56600 44.32700
C  54.53600 21.98000 44.69300
C  52.68600 18.78600 43.73500
C  55.85700 19.70500 44.16100
O  55.72900 18.56500 43.75100
C  57.24900 20.21900 44.32400
N  54.40600 25.03400 45.62800
C  55.48900 24.15600 45.60300
C  56.74800 24.82300 46.15700
C  56.16900 26.07400 46.91200
C  54.72900 26.07700 46.39400
C  57.69100 23.98800 47.06100
C  56.92500 27.42300 46.68900
C  57.79700 27.94700 47.92000
N  51.87600 26.25900 45.36900
C  52.48600 27.32200 46.01900
C  51.58600 28.44900 46.02500
C  50.55800 28.02100 45.17400
C  50.79100 26.66600 44.83200
C  51.91200 29.79900 46.68700
C  49.30500 28.37700 44.58200
O  48.71800 29.46600 44.74300
C  48.58400 27.14400 43.87700
C  48.23600 27.64400 42.53200
O  48.98500 28.23500 41.74700
O  46.97500 27.21700 42.27700
C  46.32700 27.76200 41.04300
H  50.57900 20.54200 43.62000
H  56.53800 22.38300 45.02800
H  54.16100 28.03300 47.09600
H  47.65100 24.44400 43.69100
H  48.71700 21.90900 42.51800
H  47.15300 21.26400 44.05900
H  47.21300 22.83200 45.01000
H  48.44700 21.51600 45.26300
H  47.08700 24.86300 41.63300
H  47.84600 23.33500 41.22800
H  49.99900 24.46000 40.82300
H  49.29400 26.05200 41.12000
H  53.06600 18.57900 42.73500
H  51.60100 18.88400 43.75400
H  52.95100 18.03100 44.47600
H  57.60500 20.97300 43.62300
H  58.00300 19.45100 44.15400
H  57.23000 20.50700 45.37500
H  57.21200 25.04800 45.19600
H  56.15200 25.77400 47.96000
H  58.56700 23.60300 46.53800
H  57.16500 23.10200 47.41500
H  57.94800 24.60600 47.92200
H  56.28400 28.25100 46.38500
H  57.54500 27.23200 45.81300
H  58.71300 28.26700 47.42400
H  58.01300 27.19900 48.68300
H  57.20100 28.70700 48.42400
H  51.05000 30.36300 47.04400
H  52.35800 30.33200 45.84800
H  52.47600 29.64100 47.60600
H  47.71400 26.85200 44.46700
H  45.32600 27.34000 40.94700
H  46.88700 27.48700 40.14900
H  46.32300 28.83200 41.24600


