%nproc=24
%mem=175gb
#p PBE1PBE/Def2SVP td=(nstates=5) density=(transition=1)

TDDFT excited states in gaussian

0 1
Mg 46.81300 34.80600 27.83700
C  45.17600 32.79100 30.24000
C  46.71900 37.24900 30.02700
C  47.33800 36.80600 25.25700
C  46.11100 32.19400 25.53200
N  46.14800 34.85100 30.00200
C  45.62400 33.97200 30.77600
C  45.62400 34.45800 32.24000
C  45.67300 36.06300 32.08800
C  46.14500 36.09800 30.57500
C  44.31800 36.83800 32.33200
C  46.95000 33.94900 33.01300
C  46.90000 33.61900 34.54000
H  45.84300 34.41700 35.38900
N  47.21100 36.73800 27.68900
C  47.17400 37.59200 28.78100
C  47.54700 38.97300 28.31200
C  47.76600 38.81400 26.88000
C  47.45200 37.44200 26.47200
C  47.57300 40.14900 29.27000
C  48.24400 39.87200 25.91000
O  48.37500 39.70100 24.69000
C  48.62100 41.19700 26.43700
N  46.83600 34.49900 25.62400
C  47.04000 35.53300 24.82800
C  47.32500 35.03100 23.34300
C  46.87400 33.47700 23.48000
C  46.62500 33.36900 24.98200
C  46.58500 35.85900 22.24100
C  47.86700 32.37700 22.98000
C  47.46400 31.59700 21.75500
N  46.03500 32.76500 27.86100
C  45.83400 31.87700 26.82300
C  45.15900 30.73800 27.28800
C  44.84600 31.07700 28.61800
C  45.34900 32.31400 28.94500
C  44.79200 29.55000 26.55100
C  44.25600 30.51400 29.77000
O  43.77000 29.39300 30.08200
C  44.20600 31.72700 30.80400
C  44.55000 31.25500 32.16900
O  45.61400 30.77700 32.55700
O  43.43700 31.56400 33.01300
C  43.54100 31.17800 34.42600
H  46.79200 37.98600 30.83000
H  47.57400 37.46800 24.42200
H  45.97100 31.36600 24.83300
H  44.62300 34.28200 32.63300
H  46.32300 36.45800 32.86800
H  43.46200 36.16400 32.35700
H  44.09900 37.53000 31.51900
H  44.43400 37.33900 33.29300
H  47.78200 34.63400 32.84900
H  47.31500 33.05900 32.50000
H  47.84900 33.77500 35.05400
H  46.48500 32.61400 34.62600
H  48.46100 40.76800 29.13700
H  47.51700 39.85100 30.31700
H  46.63300 40.69500 29.19400
H  47.78800 41.66200 26.96500
H  48.94200 41.84200 25.61900
H  49.47200 41.20900 27.11800
H  48.38800 35.01100 23.10300
H  45.86800 33.30600 23.09400
H  45.91300 36.58500 22.69900
H  46.15500 35.05600 21.64200
H  47.35600 36.29200 21.60500
H  47.98100 31.65400 23.78800
H  48.84800 32.82300 22.81500
H  46.58600 32.13300 21.39700
H  47.14500 30.60700 22.08300
H  48.21600 31.60800 20.96700
H  45.69700 29.19600 26.05800
H  44.17700 29.70800 25.66500
H  44.42700 28.78900 27.24100
H  43.19600 32.13800 30.79400
H  42.60700 31.38000 34.95100
H  44.23500 31.85900 34.91900
H  43.73000 30.10700 34.49100
Mg 8.73000 48.00700 24.72600
C  6.54700 48.35400 27.54300
C  11.38500 48.83200 26.74200
C  10.78900 48.16000 22.05300
C  5.85600 48.14800 22.68600
N  8.91100 48.51400 26.88400
C  7.92400 48.53400 27.88200
C  8.57600 48.79800 29.21500
C  9.96600 49.43600 28.79200
C  10.09000 48.94100 27.32100
C  9.83300 50.99700 28.89900
C  8.62100 47.55100 30.16700
C  8.25400 47.92900 31.51300
H  7.91700 46.69900 32.49700
N  10.84000 48.27700 24.55100
C  11.74400 48.56500 25.49500
C  13.05300 48.54500 24.91800
C  12.92300 48.37200 23.55600
C  11.42000 48.19500 23.29600
C  14.33000 48.90700 25.74100
C  14.02400 48.24600 22.48300
O  13.70400 48.13100 21.32700
C  15.48100 48.17400 22.87500
N  8.33400 48.41200 22.66100
C  9.38600 48.28200 21.76100
C  8.87500 48.15200 20.36300
C  7.28100 48.12500 20.55900
C  7.12600 48.16700 22.06100
C  9.40100 49.20400 19.44600
C  6.46300 46.89200 19.88400
C  5.44500 47.20900 18.86100
N  6.61400 48.15800 24.98900
C  5.61400 48.20500 24.04400
C  4.27700 48.23000 24.78200
C  4.59000 48.17400 26.15500
C  6.02700 48.18500 26.22900
C  2.90700 48.32700 24.09700
C  3.98700 48.26800 27.45000
O  2.78100 48.32100 27.78100
C  5.21700 48.56000 28.40400
C  5.00500 47.63900 29.64300
O  5.64000 46.57500 29.76100
O  4.15000 48.22900 30.51400
C  3.80400 47.24100 31.59300
H  12.25300 48.87100 27.40400
H  11.43600 48.18800 21.17300
H  4.90900 48.09600 22.14500
H  8.00400 49.60800 29.66700
H  10.77600 49.10700 29.44200
H  9.23900 51.44000 28.10000
H  10.83100 51.43100 28.94300
H  9.35800 51.24300 29.84900
H  9.67300 47.28200 30.26500
H  8.05700 46.70900 29.76500
H  7.29600 48.44900 31.52800
H  9.07600 48.51700 31.92200
H  14.96900 48.03700 25.59000
H  14.16900 49.02000 26.81300
H  14.74800 49.84700 25.38100
H  16.11600 48.17200 21.98900
H  15.42200 47.21200 23.38400
H  15.69700 49.01800 23.53000
H  9.23500 47.16500 20.07200
H  6.89900 49.04100 20.10900
H  10.07700 48.66800 18.78100
H  10.03800 49.93000 19.95100
H  8.64800 49.76300 18.89000
H  5.91200 46.49600 20.73700
H  7.19200 46.14700 19.56800
H  4.44900 46.91600 19.19200
H  5.77800 46.47600 18.12700
H  5.55100 48.21100 18.44300
H  2.66500 49.38900 24.07600
H  2.13000 47.78700 24.63800
H  2.97200 47.86900 23.11000
H  5.09400 49.61500 28.64500
H  3.12300 46.44700 31.28700
H  3.39400 47.68200 32.50100
H  4.75700 46.82700 31.92300


