%nproc=24
%mem=175gb
#p PBE1PBE/Def2SVP td=(nstates=5) density=(transition=1)

TDDFT excited states in gaussian

0 1
Mg 8.82800 2.97900 28.39100
C  10.36500 1.60400 31.10700
C  7.59700 5.54500 30.49200
C  7.11400 4.23300 25.80200
C  10.13400 0.47400 26.43700
N  8.69300 3.35100 30.57800
C  9.52500 2.68500 31.48700
C  9.40600 3.27200 32.92200
C  8.46000 4.46400 32.61800
C  8.16100 4.43600 31.13000
C  7.12300 4.69600 33.44300
C  10.76000 3.72700 33.62500
C  10.50900 4.32800 35.03400
H  10.96800 3.41400 36.17100
N  7.54400 4.72800 28.17300
C  7.38800 5.73600 29.10000
C  6.47100 6.69300 28.49200
C  6.33200 6.29300 27.12400
C  7.02200 5.05300 26.95500
C  5.95900 7.85000 29.26000
C  5.41800 7.05100 26.09900
O  5.12000 6.60100 24.97400
C  4.78500 8.36300 26.48300
N  8.63500 2.44800 26.51900
C  7.83100 3.12600 25.56000
C  7.67200 2.29800 24.30500
C  8.94400 1.45600 24.38400
C  9.32300 1.47600 25.85800
C  6.36700 1.43300 24.30400
C  10.11600 2.06600 23.58300
C  10.22200 1.75100 22.11500
N  9.99100 1.29200 28.61900
C  10.57300 0.45400 27.74600
C  11.35400 -0.51100 28.46200
C  11.33200 -0.10700 29.78000
C  10.51600 1.03400 29.82700
C  12.08500 -1.61500 27.78100
C  11.82500 -0.42000 31.05300
O  12.58200 -1.29100 31.43600
C  11.20500 0.70900 32.00300
C  10.44000 0.02800 33.08200
O  9.42100 -0.60800 32.96400
O  10.93800 0.32100 34.28700
C  10.21200 -0.27100 35.47600
H  7.38800 6.37900 31.16500
H  6.56600 4.63400 24.94700
H  10.68600 -0.27500 25.86600
H  8.89500 2.54300 33.55100
H  9.00500 5.40000 32.74400
H  6.85500 5.73300 33.64700
H  7.10100 4.02900 34.30500
H  6.33500 4.37900 32.76000
H  11.20100 4.41000 32.90000
H  11.41200 2.85700 33.70200
H  9.47300 4.65600 35.11900
H  11.13500 5.21700 35.10500
H  4.89200 7.69700 29.42300
H  6.27900 8.73500 28.71000
H  6.46700 7.93200 30.22100
H  4.23800 8.77300 25.63400
H  5.63600 9.03200 26.61800
H  4.16200 8.37000 27.37700
H  7.64200 2.93000 23.41700
H  8.80000 0.42300 24.06800
H  6.45900 0.58300 24.97900
H  6.13800 1.09500 23.29300
H  5.57600 2.10700 24.63100
H  11.08800 1.85700 24.02800
H  10.10000 3.15100 23.68700
H  10.17300 2.70400 21.58900
H  9.27100 1.26300 21.90100
H  11.07000 1.12100 21.84600
H  13.12700 -1.33900 27.62400
H  11.63900 -2.06200 26.89200
H  12.10800 -2.42700 28.50800
H  12.02700 1.28100 32.43400
H  9.15600 -0.02800 35.35600
H  10.52300 0.16000 36.42800
H  10.37400 -1.34900 35.46000
Mg 44.80500 2.87200 46.67800
C  42.56400 5.57100 46.81800
C  42.13800 0.79200 46.35700
C  47.01300 0.52400 46.12300
C  47.34200 5.37800 46.17800
N  42.64100 3.17100 46.66900
C  41.94200 4.34400 46.71700
C  40.48300 4.04900 46.33800
C  40.34000 2.59000 46.75700
C  41.78900 2.14300 46.48400
C  39.96100 2.42600 48.24700
C  40.23600 4.25700 44.79800
C  39.26900 5.45400 44.33400
H  39.83900 6.57400 43.44700
N  44.60700 0.93700 46.23600
C  43.41900 0.24600 46.16900
C  43.72000 -1.14400 46.02500
C  45.14200 -1.32500 46.06900
C  45.67600 0.06600 46.14000
C  42.62100 -2.25300 45.89000
C  45.87200 -2.71700 46.06400
O  45.23700 -3.72500 46.11700
C  47.31400 -2.74100 46.27700
N  46.83800 2.95400 45.90000
C  47.54500 1.82700 46.15300
C  49.01900 2.09000 46.41200
C  49.17500 3.56200 46.06200
C  47.67600 4.02200 46.03300
C  49.44600 1.78300 47.89500
C  49.96600 3.97900 44.73400
C  51.33300 4.60700 44.78400
N  45.00300 4.99200 46.72600
C  46.07700 5.86500 46.51000
C  45.65700 7.24900 46.55200
C  44.29400 7.16900 46.69900
C  43.89900 5.79300 46.77900
C  46.53700 8.41600 46.37700
C  43.08200 7.96600 46.81100
O  42.95000 9.19400 46.88400
C  41.94500 6.98400 47.00000
C  41.32800 7.26400 48.36600
O  42.00600 7.20100 49.38900
O  40.00100 7.70700 48.25300
C  39.36700 8.02300 49.50500
H  41.26200 0.14300 46.41400
H  47.71200 -0.30200 46.26300
H  48.13300 6.13000 46.13700
H  39.87300 4.80700 46.83000
H  39.59400 2.12600 46.11300
H  39.12500 1.73800 48.12600
H  39.66800 3.42600 48.56800
H  40.73100 2.03300 48.91100
H  39.76200 3.35000 44.42300
H  41.21000 4.30800 44.31200
H  38.98200 5.96200 45.25500
H  38.33700 5.13200 43.87100
H  42.71600 -2.97100 45.07600
H  41.68000 -1.71700 45.76200
H  42.51800 -2.85500 46.79300
H  47.88700 -2.17400 45.54300
H  47.64600 -3.77900 46.25800
H  47.54400 -2.49600 47.31300
H  49.67000 1.44400 45.82200
H  49.62700 4.10200 46.89400
H  49.91800 0.80800 48.01500
H  48.60400 1.96800 48.56200
H  50.20200 2.52100 48.16700
H  49.41200 4.48800 43.94600
H  50.09500 2.95900 44.37100
H  52.11800 3.97300 44.37300
H  51.60000 4.81700 45.82000
H  51.22600 5.52900 44.21300
H  47.39900 8.09600 45.79100
H  46.88900 8.66700 47.37800
H  45.99500 9.26600 45.96500
H  41.25100 7.27600 46.21300
H  39.04600 7.15600 50.08300
H  38.48400 8.64500 49.36100
H  39.98200 8.61300 50.18400


