%nproc=24
%mem=175gb
#p PBE1PBE/Def2SVP td=(nstates=5) density=(transition=1)

TDDFT excited states in gaussian

0 1
Mg 35.28300 49.28100 25.05100
C  35.19500 47.66600 28.21300
C  33.70700 52.00200 26.67100
C  34.96700 50.74000 22.15000
C  36.56200 46.36300 23.65600
N  34.51200 49.78400 27.24100
C  34.71400 48.96400 28.32400
C  34.31200 49.60400 29.64200
C  33.71300 50.96400 29.08000
C  34.02200 50.95100 27.57500
C  32.25500 51.13300 29.49700
C  35.54400 49.80300 30.55200
C  35.36900 49.62200 32.10800
H  33.94300 49.72800 32.69800
N  34.52100 51.15700 24.48200
C  33.85000 52.07800 25.28700
C  33.47900 53.23000 24.45000
C  33.93900 52.90600 23.13200
C  34.54200 51.56500 23.25500
C  32.73100 54.35200 24.94000
C  33.82500 53.73400 21.85600
O  34.18700 53.27500 20.76100
C  33.44700 55.16200 21.91300
N  35.61000 48.60100 23.15100
C  35.50000 49.43800 22.11600
C  35.83700 48.71600 20.77100
C  36.52000 47.40900 21.28500
C  36.22400 47.41000 22.75200
C  34.60600 48.52300 19.81400
C  38.05900 47.61300 21.01100
C  38.99100 48.19700 22.12800
N  35.88400 47.43300 25.74900
C  36.37900 46.32800 25.03300
C  36.56500 45.20400 25.98400
C  36.06300 45.68400 27.18800
C  35.69100 47.00600 27.06500
C  36.87500 43.87200 25.49400
C  35.71300 45.23100 28.53200
O  35.83100 44.10500 29.00200
C  35.09700 46.50900 29.27300
C  33.71900 46.24000 29.75100
O  32.68000 46.50000 29.15100
O  33.78400 45.64900 31.02700
C  32.59200 45.22000 31.72300
H  33.45300 52.96300 27.12400
H  34.90900 51.17800 21.15100
H  37.00400 45.52600 23.11200
H  33.56100 49.02400 30.17900
H  34.21800 51.75900 29.62800
H  32.03300 52.05800 30.02800
H  31.83200 50.33100 30.10200
H  31.68100 51.22500 28.57400
H  35.98600 50.78700 30.39600
H  36.22100 49.06000 30.12900
H  35.89600 50.41200 32.64200
H  35.97000 48.74800 32.35900
H  33.30100 55.24000 24.66600
H  32.41200 54.18900 25.96900
H  31.80500 54.22200 24.37900
H  32.39300 55.32500 22.14000
H  33.61200 55.61800 20.93700
H  33.97000 55.60700 22.75900
H  36.50600 49.47100 20.35800
H  36.19100 46.53200 20.72700
H  34.58000 49.32300 19.07400
H  33.72600 48.44000 20.45100
H  34.76400 47.56600 19.31700
H  38.19100 48.07200 20.03100
H  38.44400 46.59300 21.03000
H  39.60900 48.91300 21.58700
H  39.65000 47.44800 22.56900
H  38.49600 48.74500 22.92900
H  36.19400 43.63700 24.67700
H  36.66800 43.18600 26.31600
H  37.94500 43.75700 25.32300
H  35.75600 46.63900 30.13200
H  32.37400 44.16000 31.59500
H  31.77700 45.93200 31.59200
H  32.87100 45.44400 32.75300
Mg -9.66500 18.33400 42.78400
C  -6.24000 17.80500 42.49600
C  -9.09900 21.67600 42.05300
C  -12.91200 18.87400 42.48300
C  -10.14800 14.91400 43.00500
N  -7.91600 19.56100 42.17100
C  -6.59800 19.16200 42.25800
C  -5.63300 20.29600 42.07600
C  -6.57300 21.55800 42.31900
C  -7.95100 20.93600 42.13600
C  -6.37100 22.54100 43.56800
C  -4.81400 20.28500 40.70300
C  -5.51800 19.69700 39.44400
H  -5.27900 20.48100 38.17600
N  -10.85700 20.01500 42.21400
C  -10.42000 21.32200 41.96500
C  -11.51000 22.18000 41.58900
C  -12.66600 21.36900 41.68400
C  -12.20600 20.01400 42.11100
C  -11.29500 23.68900 41.46200
C  -14.07900 21.93000 41.40500
O  -14.25800 23.08100 40.99400
C  -15.20100 21.03000 41.71200
N  -11.24800 17.01300 42.63400
C  -12.52300 17.52900 42.79400
C  -13.59000 16.43700 43.02800
C  -12.64200 15.17100 42.94600
C  -11.28500 15.70200 42.80600
C  -14.41600 16.47100 44.27500
C  -12.97300 14.21900 41.68800
C  -13.02000 12.77100 42.10100
N  -8.45700 16.64500 42.95800
C  -8.80300 15.30900 43.04100
C  -7.58100 14.47400 43.08900
C  -6.53000 15.43300 42.87800
C  -7.12900 16.69600 42.80500
C  -7.42000 13.00900 43.03700
C  -5.08700 15.65900 42.64900
O  -4.19400 14.85200 42.53200
C  -4.84400 17.18800 42.43700
C  -3.86600 17.68600 43.40500
O  -2.75700 18.18900 43.22300
O  -4.28400 17.22800 44.68200
C  -3.45300 17.67600 45.82000
H  -8.86100 22.74200 42.07500
H  -13.99400 18.96100 42.60100
H  -10.40600 13.86400 43.15400
H  -4.85200 20.25200 42.83500
H  -6.35600 22.13700 41.42100
H  -5.49500 22.34800 44.18700
H  -7.18200 22.50000 44.29500
H  -6.14100 23.54200 43.20200
H  -3.84000 19.81700 40.84200
H  -4.55300 21.32400 40.50200
H  -6.59000 19.59400 39.61500
H  -5.14100 18.69400 39.24600
H  -11.94900 24.16700 40.73200
H  -10.29700 23.87500 41.06600
H  -11.49900 24.10000 42.45100
H  -15.27200 20.92300 42.79400
H  -15.05600 20.07500 41.20600
H  -16.08400 21.54300 41.33100
H  -14.18800 16.36800 42.11900
H  -12.69300 14.77700 43.96100
H  -14.92900 15.51000 44.31600
H  -15.20300 17.20800 44.11500
H  -13.79200 16.69500 45.14100
H  -12.21000 14.42700 40.93800
H  -13.86700 14.45400 41.10900
H  -12.15800 12.27100 41.66000
H  -13.81800 12.22200 41.60000
H  -12.89800 12.69100 43.18100
H  -8.34400 12.43000 43.00100
H  -6.93100 12.73100 43.97000
H  -6.96900 12.89900 42.05100
H  -4.46800 17.26400 41.41700
H  -4.21000 17.98200 46.54300
H  -2.74000 18.49300 45.70900
H  -3.06600 16.75200 46.25000


