%nproc=24
%mem=175gb
#p PBE1PBE/Def2SVP td=(nstates=5) density=(transition=1)

TDDFT excited states in gaussian

0 1
Mg 8.82800 2.97900 28.39100
C  10.36500 1.60400 31.10700
C  7.59700 5.54500 30.49200
C  7.11400 4.23300 25.80200
C  10.13400 0.47400 26.43700
N  8.69300 3.35100 30.57800
C  9.52500 2.68500 31.48700
C  9.40600 3.27200 32.92200
C  8.46000 4.46400 32.61800
C  8.16100 4.43600 31.13000
C  7.12300 4.69600 33.44300
C  10.76000 3.72700 33.62500
C  10.50900 4.32800 35.03400
H  10.96800 3.41400 36.17100
N  7.54400 4.72800 28.17300
C  7.38800 5.73600 29.10000
C  6.47100 6.69300 28.49200
C  6.33200 6.29300 27.12400
C  7.02200 5.05300 26.95500
C  5.95900 7.85000 29.26000
C  5.41800 7.05100 26.09900
O  5.12000 6.60100 24.97400
C  4.78500 8.36300 26.48300
N  8.63500 2.44800 26.51900
C  7.83100 3.12600 25.56000
C  7.67200 2.29800 24.30500
C  8.94400 1.45600 24.38400
C  9.32300 1.47600 25.85800
C  6.36700 1.43300 24.30400
C  10.11600 2.06600 23.58300
C  10.22200 1.75100 22.11500
N  9.99100 1.29200 28.61900
C  10.57300 0.45400 27.74600
C  11.35400 -0.51100 28.46200
C  11.33200 -0.10700 29.78000
C  10.51600 1.03400 29.82700
C  12.08500 -1.61500 27.78100
C  11.82500 -0.42000 31.05300
O  12.58200 -1.29100 31.43600
C  11.20500 0.70900 32.00300
C  10.44000 0.02800 33.08200
O  9.42100 -0.60800 32.96400
O  10.93800 0.32100 34.28700
C  10.21200 -0.27100 35.47600
H  7.38800 6.37900 31.16500
H  6.56600 4.63400 24.94700
H  10.68600 -0.27500 25.86600
H  8.89500 2.54300 33.55100
H  9.00500 5.40000 32.74400
H  6.85500 5.73300 33.64700
H  7.10100 4.02900 34.30500
H  6.33500 4.37900 32.76000
H  11.20100 4.41000 32.90000
H  11.41200 2.85700 33.70200
H  9.47300 4.65600 35.11900
H  11.13500 5.21700 35.10500
H  4.89200 7.69700 29.42300
H  6.27900 8.73500 28.71000
H  6.46700 7.93200 30.22100
H  4.23800 8.77300 25.63400
H  5.63600 9.03200 26.61800
H  4.16200 8.37000 27.37700
H  7.64200 2.93000 23.41700
H  8.80000 0.42300 24.06800
H  6.45900 0.58300 24.97900
H  6.13800 1.09500 23.29300
H  5.57600 2.10700 24.63100
H  11.08800 1.85700 24.02800
H  10.10000 3.15100 23.68700
H  10.17300 2.70400 21.58900
H  9.27100 1.26300 21.90100
H  11.07000 1.12100 21.84600
H  13.12700 -1.33900 27.62400
H  11.63900 -2.06200 26.89200
H  12.10800 -2.42700 28.50800
H  12.02700 1.28100 32.43400
H  9.15600 -0.02800 35.35600
H  10.52300 0.16000 36.42800
H  10.37400 -1.34900 35.46000
Mg 46.26900 25.13700 28.87000
C  47.26400 27.26100 31.45200
C  45.06800 22.98000 31.10200
C  46.59300 22.69600 26.49900
C  47.58600 27.40300 26.57500
N  46.02800 25.20400 31.05400
C  46.48600 26.15500 31.85900
C  45.98900 25.86800 33.32200
C  45.39300 24.44600 33.19000
C  45.51200 24.15500 31.69700
C  46.24000 23.30800 33.94900
C  44.92100 26.90700 33.89400
C  45.18000 27.25800 35.31900
H  44.05100 27.15600 36.33300
N  45.85600 23.12600 28.82000
C  45.33200 22.40200 29.85800
C  44.87200 21.10600 29.34000
C  45.32500 21.03600 27.99300
C  46.00600 22.31800 27.74700
C  44.15900 20.03600 30.22700
C  45.21800 19.84800 26.99000
O  45.63600 19.88000 25.83800
C  44.54500 18.61000 27.44900
N  46.98900 25.03900 26.90500
C  47.10000 23.90200 26.09900
C  47.90400 24.25000 24.81900
C  47.61600 25.80400 24.63200
C  47.36900 26.07600 26.14300
C  49.38900 23.83600 24.90100
C  46.42100 26.18700 23.80600
C  45.03400 26.12100 24.37300
N  47.05200 27.04800 28.89500
C  47.58500 27.84200 27.90600
C  48.07800 29.11700 28.43200
C  48.07000 28.90600 29.88400
C  47.43900 27.61600 30.07900
C  48.67900 30.18600 27.67300
C  48.43700 29.46600 31.17900
O  49.02500 30.43400 31.48700
C  47.84100 28.42700 32.26500
C  48.81200 28.03800 33.35100
O  49.55700 27.06300 33.31900
O  48.64800 28.91100 34.42600
C  49.48500 28.68900 35.61900
H  44.47200 22.24900 31.65300
H  46.68200 21.86300 25.79800
H  47.89200 28.10500 25.79700
H  46.81500 25.79600 34.03000
H  44.37900 24.31000 33.56600
H  45.81000 23.21000 34.94600
H  47.29000 23.54400 34.12000
H  46.10500 22.37300 33.40400
H  43.90600 26.51300 33.84000
H  44.83700 27.84500 33.34500
H  45.39600 28.32500 35.27200
H  46.03100 26.79100 35.81400
H  44.95600 19.41500 30.63500
H  43.40600 19.48400 29.66400
H  43.77200 20.42600 31.16900
H  44.70200 18.21100 28.45100
H  44.79100 17.78900 26.77600
H  43.48800 18.66000 27.18600
H  47.38400 23.69600 24.03800
H  48.47400 26.33800 24.22400
H  50.12500 24.61500 24.70200
H  49.61300 22.90600 24.37800
H  49.63200 23.53200 25.91900
H  46.32100 25.62700 22.87700
H  46.56100 27.21900 23.48400
H  44.87400 27.14600 24.70700
H  44.90600 25.48200 25.24700
H  44.33600 25.84200 23.58300
H  48.36400 31.10800 28.16200
H  48.25000 30.14800 26.67200
H  49.76500 30.10200 27.69900
H  47.00200 28.92500 32.75100
H  50.51900 28.64400 35.27600
H  49.25400 27.73000 36.08200
H  49.44300 29.39800 36.44600


