%nproc=24
%mem=175gb
#p PBE1PBE/Def2SVP td=(nstates=5) density=(transition=1)

TDDFT excited states in gaussian

0 1
Mg 35.28300 49.28100 25.05100
C  35.19500 47.66600 28.21300
C  33.70700 52.00200 26.67100
C  34.96700 50.74000 22.15000
C  36.56200 46.36300 23.65600
N  34.51200 49.78400 27.24100
C  34.71400 48.96400 28.32400
C  34.31200 49.60400 29.64200
C  33.71300 50.96400 29.08000
C  34.02200 50.95100 27.57500
C  32.25500 51.13300 29.49700
C  35.54400 49.80300 30.55200
C  35.36900 49.62200 32.10800
H  33.94300 49.72800 32.69800
N  34.52100 51.15700 24.48200
C  33.85000 52.07800 25.28700
C  33.47900 53.23000 24.45000
C  33.93900 52.90600 23.13200
C  34.54200 51.56500 23.25500
C  32.73100 54.35200 24.94000
C  33.82500 53.73400 21.85600
O  34.18700 53.27500 20.76100
C  33.44700 55.16200 21.91300
N  35.61000 48.60100 23.15100
C  35.50000 49.43800 22.11600
C  35.83700 48.71600 20.77100
C  36.52000 47.40900 21.28500
C  36.22400 47.41000 22.75200
C  34.60600 48.52300 19.81400
C  38.05900 47.61300 21.01100
C  38.99100 48.19700 22.12800
N  35.88400 47.43300 25.74900
C  36.37900 46.32800 25.03300
C  36.56500 45.20400 25.98400
C  36.06300 45.68400 27.18800
C  35.69100 47.00600 27.06500
C  36.87500 43.87200 25.49400
C  35.71300 45.23100 28.53200
O  35.83100 44.10500 29.00200
C  35.09700 46.50900 29.27300
C  33.71900 46.24000 29.75100
O  32.68000 46.50000 29.15100
O  33.78400 45.64900 31.02700
C  32.59200 45.22000 31.72300
H  33.45300 52.96300 27.12400
H  34.90900 51.17800 21.15100
H  37.00400 45.52600 23.11200
H  33.56100 49.02400 30.17900
H  34.21800 51.75900 29.62800
H  32.03300 52.05800 30.02800
H  31.83200 50.33100 30.10200
H  31.68100 51.22500 28.57400
H  35.98600 50.78700 30.39600
H  36.22100 49.06000 30.12900
H  35.89600 50.41200 32.64200
H  35.97000 48.74800 32.35900
H  33.30100 55.24000 24.66600
H  32.41200 54.18900 25.96900
H  31.80500 54.22200 24.37900
H  32.39300 55.32500 22.14000
H  33.61200 55.61800 20.93700
H  33.97000 55.60700 22.75900
H  36.50600 49.47100 20.35800
H  36.19100 46.53200 20.72700
H  34.58000 49.32300 19.07400
H  33.72600 48.44000 20.45100
H  34.76400 47.56600 19.31700
H  38.19100 48.07200 20.03100
H  38.44400 46.59300 21.03000
H  39.60900 48.91300 21.58700
H  39.65000 47.44800 22.56900
H  38.49600 48.74500 22.92900
H  36.19400 43.63700 24.67700
H  36.66800 43.18600 26.31600
H  37.94500 43.75700 25.32300
H  35.75600 46.63900 30.13200
H  32.37400 44.16000 31.59500
H  31.77700 45.93200 31.59200
H  32.87100 45.44400 32.75300
Mg 7.63600 56.80200 41.94500
C  6.62500 53.44600 41.38500
C  10.68100 55.97500 40.45800
C  8.03200 60.02500 41.40500
C  4.22800 57.38500 43.14900
N  8.45000 54.91300 40.78100
C  7.95700 53.66100 40.95000
C  8.99000 52.64800 40.49000
C  10.32900 53.33300 40.76400
C  9.81400 54.85400 40.60800
C  10.97600 53.14900 42.13800
C  8.68800 52.22300 38.98700
C  8.78600 50.76200 38.78500
H  9.47200 50.26400 37.49800
N  9.15000 57.91900 40.99500
C  10.37200 57.38400 40.51700
C  11.15700 58.50500 40.06500
C  10.49600 59.72000 40.38700
C  9.15900 59.29200 40.93300
C  12.51600 58.28800 39.40700
C  10.98000 61.08400 40.08900
O  12.05800 61.21700 39.52300
C  10.25300 62.36800 40.32000
N  6.19300 58.49600 42.17300
C  6.76600 59.71000 42.05200
C  5.81300 60.81300 42.54700
C  4.61500 59.97500 43.27000
C  5.02400 58.52600 42.89900
C  6.51300 61.95400 43.41400
C  3.16600 60.37300 42.84800
C  2.45300 59.49100 41.76700
N  5.85400 55.73100 42.22300
C  4.59600 56.10000 42.77900
C  3.77800 54.83100 43.01200
C  4.55200 53.84100 42.42800
C  5.79000 54.43400 41.99000
C  2.39800 54.58300 43.65100
C  4.62700 52.43800 42.17000
O  3.86200 51.52600 42.48800
C  5.87100 52.24300 41.37900
C  5.33600 51.93400 39.96200
O  4.91100 52.73800 39.13500
O  5.35200 50.52000 39.80700
C  4.79600 49.97200 38.63700
H  11.68700 55.76400 40.08900
H  8.33200 61.07300 41.34400
H  3.25200 57.43300 43.63500
H  9.01800 51.75000 41.10700
H  11.18700 53.14700 40.11900
H  10.60100 52.28700 42.68900
H  11.03000 54.09000 42.68600
H  12.00300 52.89400 41.87400
H  9.43500 52.68300 38.34000
H  7.77500 52.65300 38.57500
H  7.73900 50.46500 38.83400
H  9.33600 50.33800 39.62500
H  13.35000 58.53400 40.06400
H  12.53800 58.83400 38.46500
H  12.64500 57.23800 39.14400
H  10.18000 62.52800 41.39600
H  9.25600 62.43600 39.88300
H  10.86800 63.22900 40.06100
H  5.41300 61.22100 41.61900
H  4.75100 60.04000 44.34900
H  7.57600 62.02500 43.18400
H  6.34900 61.97700 44.49200
H  5.91600 62.83300 43.16600
H  3.09900 61.41000 42.52000
H  2.61700 60.24800 43.78100
H  1.86900 60.30400 41.33500
H  1.78000 58.70400 42.10800
H  3.21700 59.14200 41.07200
H  2.47400 53.89100 44.48900
H  1.98400 53.99700 42.83100
H  1.91500 55.55200 43.77500
H  6.40600 51.37000 41.75300
H  4.82800 48.88300 38.58500
H  5.36500 50.36200 37.79400
H  3.76000 50.31200 38.63400


