%nproc=24
%mem=175gb
#p PBE1PBE/Def2SVP td=(nstates=5) density=(transition=1)

TDDFT excited states in gaussian

0 1
Mg 8.88300 3.35600 27.86700
C  10.38300 1.75300 30.56400
C  7.38700 5.53100 30.05200
C  7.19500 4.67800 25.21800
C  10.33700 0.83700 25.82400
N  8.85600 3.59100 30.04700
C  9.65000 2.88400 30.91100
C  9.43500 3.49700 32.29700
C  8.27700 4.46700 32.14400
C  8.19100 4.56300 30.62500
C  6.95700 4.16900 32.80300
C  10.74000 4.12300 32.98500
C  10.49500 4.94200 34.29300
H  10.56500 4.20300 35.65500
N  7.60700 4.98100 27.67200
C  7.08500 5.72600 28.67800
C  6.18300 6.66800 28.06800
C  6.13000 6.40800 26.66700
C  6.96700 5.31400 26.45500
C  5.47200 7.68700 28.90400
C  5.19000 7.09800 25.63600
O  4.95300 6.60000 24.55000
C  4.43400 8.30700 25.92000
N  8.80500 2.84800 25.93900
C  8.07600 3.55600 24.98400
C  8.26300 2.99400 23.56400
C  9.45300 1.99700 23.77400
C  9.56600 1.92700 25.28800
C  7.04500 2.56000 22.85900
C  10.87100 2.27700 23.02500
C  11.45600 1.24800 22.05300
N  10.10500 1.54900 28.11900
C  10.57400 0.66100 27.19200
C  11.35500 -0.36000 27.80500
C  11.38100 0.07200 29.18600
C  10.52100 1.19800 29.31900
C  12.01900 -1.46000 27.06800
C  11.98300 -0.20000 30.47100
O  12.81500 -0.99400 30.86400
C  11.31100 0.93300 31.44800
C  10.73600 0.32300 32.67400
O  9.77600 -0.41600 32.67100
O  11.39000 0.69300 33.78900
C  10.74800 0.34700 35.11500
H  6.95000 6.26000 30.73800
H  6.63700 5.11600 24.38800
H  10.70900 0.18100 25.03400
H  9.14100 2.60500 32.85000
H  8.55100 5.42600 32.58300
H  6.38200 3.89500 31.91900
H  6.56900 5.01600 33.36900
H  6.99000 3.26400 33.41000
H  11.10800 4.77800 32.19500
H  11.45800 3.33300 33.20200
H  9.50400 5.39400 34.30500
H  11.21400 5.76100 34.31200
H  5.72000 7.75000 29.96400
H  4.42300 7.39300 28.89100
H  5.49900 8.68800 28.47300
H  3.85400 8.38500 26.83900
H  3.77700 8.64800 25.12000
H  5.21700 9.06500 25.91700
H  8.64800 3.90400 23.10300
H  8.95400 1.07600 23.47300
H  6.77200 3.11000 21.95800
H  6.21600 2.63700 23.56300
H  7.08300 1.53300 22.49600
H  11.62300 2.42400 23.80000
H  10.95600 3.19100 22.43600
H  12.28200 0.65800 22.45100
H  11.66900 1.63000 21.05500
H  10.70100 0.47500 21.90900
H  11.30800 -1.87500 26.35400
H  12.43500 -2.21900 27.73000
H  12.73100 -1.00300 26.38000
H  12.14100 1.55900 31.77400
H  11.59600 0.40500 35.79700
H  10.32500 -0.65500 35.04600
H  10.03300 1.14100 35.33100
Mg 6.73600 57.36100 41.87100
C  5.57600 54.03200 41.84400
C  9.54700 56.26000 40.29200
C  7.50300 60.62700 41.21800
C  3.48900 58.25400 43.03700
N  7.42000 55.35200 41.01200
C  6.89900 54.10900 41.23100
C  7.68800 53.00900 40.50000
C  9.08300 53.80000 40.39600
C  8.66300 55.23700 40.58100
C  10.16800 53.39100 41.42800
C  7.12500 52.63700 39.05500
C  7.43400 51.26500 38.47600
H  8.38100 51.07500 37.27200
N  8.34400 58.41300 40.90600
C  9.44600 57.74300 40.46000
C  10.47100 58.62900 40.12400
C  9.93400 59.94200 40.40300
C  8.52300 59.74000 40.83800
C  11.84700 58.22300 39.61000
C  10.74100 61.20700 40.21700
O  11.93000 61.13100 39.81300
C  10.22200 62.63600 40.60600
N  5.63100 59.10700 42.11600
C  6.19700 60.37100 41.79700
C  5.36400 61.47100 42.39400
C  3.99000 60.81500 42.65100
C  4.37000 59.30600 42.68800
C  5.80500 62.13900 43.71600
C  2.94100 61.09300 41.45000
C  2.15100 62.39300 41.46200
N  4.97100 56.31000 42.51500
C  3.75500 56.80200 42.96500
C  2.84300 55.78700 43.18500
C  3.53400 54.62400 42.80400
C  4.81800 55.00700 42.38100
C  1.45400 55.97300 43.70900
C  3.46600 53.25900 42.78000
O  2.61500 52.50900 43.21600
C  4.68000 52.84700 41.92100
C  4.09400 52.40300 40.61400
O  3.41000 53.09000 39.92100
O  4.40200 51.06200 40.37800
C  3.73000 50.54700 39.23600
H  10.54100 55.93300 39.97900
H  7.77500 61.68500 41.22200
H  2.57200 58.59300 43.52300
H  7.89200 52.14900 41.13700
H  9.49500 53.56500 39.41500
H  10.79300 52.70800 40.85200
H  9.75000 52.84400 42.27300
H  10.76800 54.24600 41.74000
H  7.52400 53.32000 38.30500
H  6.05400 52.83900 39.08200
H  6.45300 50.86600 38.21400
H  7.81100 50.65000 39.29300
H  12.72600 58.79500 39.90900
H  11.62200 58.24700 38.54400
H  12.11100 57.23800 39.99500
H  10.03600 62.67400 41.67900
H  9.32800 62.73100 39.99000
H  10.83200 63.47600 40.27400
H  5.23800 62.21700 41.61000
H  3.54200 61.14600 43.58800
H  5.15700 61.94700 44.57100
H  6.23700 63.12400 43.53800
H  6.70300 61.58800 43.99500
H  2.28600 60.23100 41.57500
H  3.43700 61.03400 40.48100
H  2.26900 62.89100 40.50000
H  2.53500 63.03900 42.25200
H  1.08300 62.20800 41.58000
H  0.80400 55.41700 43.03400
H  1.12000 57.01000 43.65700
H  1.32300 55.57400 44.71500
H  5.17600 52.01400 42.41800
H  2.78900 50.09000 39.54100
H  4.23500 49.69300 38.78300
H  3.52200 51.31600 38.49400


