%nproc=24
%mem=175gb
#p PBE1PBE/Def2SVP td=(nstates=5) density=(transition=1)

TDDFT excited states in gaussian

0 1
Mg 47.67100 15.89000 28.45400
C  45.34400 15.65500 31.04800
C  49.48000 18.07500 30.51500
C  49.68700 16.65900 25.89600
C  45.30600 14.62100 26.30000
N  47.50700 16.71700 30.64000
C  46.40900 16.47700 31.40500
C  46.52000 17.23500 32.78700
C  47.75800 18.22000 32.48000
C  48.27100 17.69900 31.12700
C  47.16600 19.65600 32.25100
C  46.90400 16.16800 33.87700
C  47.20400 16.68600 35.31000
H  48.31600 16.29900 36.23900
N  49.43000 17.01400 28.32000
C  50.06900 17.82700 29.27100
C  51.20000 18.39100 28.66300
C  51.38300 17.85100 27.39700
C  50.14500 17.12800 27.15700
C  52.11500 19.27100 29.45000
C  52.51500 18.07600 26.34100
O  52.57400 17.52300 25.24800
C  53.78800 18.86100 26.66900
N  47.44200 15.76700 26.39600
C  48.48400 16.01700 25.57200
C  48.26000 15.53000 24.12700
C  46.80100 15.00400 24.22400
C  46.51000 15.00800 25.71400
C  48.61100 16.58300 23.02400
C  46.48600 13.65000 23.53100
C  46.96600 12.43800 24.21000
N  45.75600 15.16700 28.59900
C  44.93800 14.69700 27.68600
C  43.69800 14.18000 28.27400
C  43.86300 14.56100 29.64400
C  45.08900 15.18100 29.78600
C  42.77800 13.18000 27.74800
C  43.21100 14.49100 30.94000
O  42.19200 13.93500 31.28200
C  44.14500 15.27600 31.86900
C  43.41900 16.43800 32.55500
O  43.17000 17.49000 32.02600
O  43.04200 16.05500 33.82000
C  42.33900 17.13300 34.55300
H  50.09800 18.64700 31.20900
H  50.41400 16.70200 25.08200
H  44.81200 14.14000 25.45400
H  45.63400 17.83000 33.01000
H  48.52200 18.24600 33.25800
H  47.13800 20.01300 31.22200
H  47.84000 20.42900 32.62100
H  46.16600 19.79300 32.66200
H  47.75800 15.61000 33.49400
H  46.09800 15.43400 33.89800
H  46.24800 16.58700 35.82500
H  47.42100 17.73200 35.09700
H  51.80300 19.48300 30.47300
H  52.34700 20.14300 28.83700
H  53.02500 18.67700 29.53900
H  53.61800 19.92500 26.83400
H  54.61200 18.70300 25.97300
H  54.19200 18.41700 27.57900
H  49.00300 14.73300 24.13500
H  46.20400 15.80500 23.78800
H  49.40000 17.25400 23.36200
H  47.72600 17.18100 22.80500
H  48.98600 16.12600 22.10800
H  46.99700 13.77600 22.57700
H  45.42300 13.59700 23.29500
H  46.25100 12.14600 24.97900
H  47.97200 12.58100 24.60400
H  46.98800 11.57800 23.54000
H  43.37600 12.59600 27.04800
H  41.93300 13.49000 27.13300
H  42.41600 12.61300 28.60500
H  44.52600 14.58100 32.61800
H  41.57800 16.67700 35.18600
H  41.70900 17.79000 33.95300
H  43.02300 17.66800 35.21100
Mg 9.20100 48.63300 24.80700
C  7.00600 48.65300 27.54500
C  11.64200 49.94100 26.66500
C  11.05000 48.61100 22.15100
C  6.24200 48.21900 22.76700
N  9.22500 49.31100 26.85200
C  8.33600 49.09200 27.82900
C  8.78900 49.67200 29.14400
C  10.10600 50.44700 28.73700
C  10.36100 49.87000 27.35800
C  10.08400 52.01000 28.74700
C  9.14700 48.49500 30.18800
C  8.51500 48.70500 31.60300
H  8.63500 47.36700 32.51500
N  11.09800 48.95000 24.52400
C  12.00800 49.46400 25.43200
C  13.32900 49.31600 24.88600
C  13.24200 48.87600 23.50200
C  11.75200 48.67100 23.33700
C  14.54800 49.78900 25.72900
C  14.23500 48.59100 22.38100
O  13.96800 48.12400 21.25900
C  15.64500 48.82300 22.79500
N  8.62300 48.59400 22.78300
C  9.67100 48.60700 21.89600
C  9.16600 48.63700 20.45300
C  7.69000 48.19700 20.63800
C  7.46000 48.39900 22.13700
C  9.46200 50.04800 19.80600
C  7.33800 46.72100 20.17100
C  5.87200 46.44300 19.80200
N  7.05000 48.42700 25.05400
C  6.04600 48.27100 24.14700
C  4.77900 48.04000 24.80400
C  5.15700 48.11700 26.15700
C  6.52300 48.41500 26.26400
C  3.35900 47.77300 24.25400
C  4.63600 47.99600 27.49000
O  3.59000 47.60400 27.93700
C  5.82500 48.51800 28.45200
C  5.77300 47.51400 29.51800
O  6.28400 46.36600 29.55000
O  5.03000 48.07600 30.48700
C  4.75700 47.29300 31.69300
H  12.47200 50.28300 27.28700
H  11.67900 48.52800 21.26200
H  5.39900 48.00100 22.10800
H  8.05900 50.30600 29.64800
H  11.00500 50.19100 29.29800
H  10.13500 52.34800 27.71200
H  10.98900 52.30100 29.28000
H  9.22300 52.51800 29.18000
H  10.20800 48.27500 30.31200
H  8.82700 47.56600 29.71600
H  7.46000 48.96400 31.51600
H  9.00400 49.45600 32.22300
H  14.89000 48.94400 26.32500
H  14.28100 50.45800 26.54800
H  15.30300 50.38600 25.21800
H  15.98500 48.19800 23.62000
H  15.64000 49.89000 23.02100
H  16.36500 48.70300 21.98500
H  9.75900 47.88800 19.92800
H  7.04700 48.83900 20.03600
H  8.53800 50.61700 19.70400
H  9.90700 50.08500 18.81200
H  10.06100 50.74200 20.39600
H  7.49400 46.14100 21.08100
H  7.92900 46.29300 19.36100
H  5.39900 45.74600 20.49500
H  5.63800 46.05100 18.81200
H  5.34900 47.38100 19.98300
H  3.34300 48.21100 23.25600
H  2.59900 48.22600 24.89200
H  3.25800 46.69000 24.18400
H  5.55100 49.48200 28.88100
H  5.30400 47.73800 32.52400
H  4.92100 46.22700 31.53900
H  3.71000 47.43600 31.96000


