%nproc=24
%mem=175gb
#p PBE1PBE/Def2SVP td=(nstates=5) density=(transition=1)

TDDFT excited states in gaussian

0 1
Mg 46.36700 34.87300 28.25800
C  44.78600 32.87200 30.57800
C  46.38600 37.42000 30.77600
C  47.55600 36.98300 26.07000
C  45.97900 32.44300 25.82700
N  45.44200 35.14400 30.41100
C  45.07300 34.11700 31.15800
C  45.12500 34.48000 32.66900
C  45.08600 36.04500 32.56800
C  45.67500 36.28100 31.16800
C  43.63100 36.61800 32.70900
C  46.46000 33.91200 33.20000
C  46.69200 34.00900 34.71400
H  45.77100 34.85100 35.57400
N  47.01100 36.84800 28.33900
C  46.96000 37.70200 29.49400
C  47.69800 38.90500 29.13400
C  48.14000 38.73300 27.78500
C  47.54200 37.48800 27.30500
C  47.97900 40.11100 30.10600
C  49.09900 39.67100 26.98000
O  49.27000 39.43700 25.81500
C  49.74700 40.84400 27.64100
N  46.80600 34.69600 26.23000
C  47.30800 35.72100 25.50500
C  47.46400 35.39100 24.02100
C  47.08600 33.89200 23.98700
C  46.58100 33.65400 25.46800
C  46.60500 36.26500 23.03500
C  48.11600 32.92900 23.45400
C  49.59100 32.99000 23.91900
N  45.55600 33.03000 28.12500
C  45.46900 32.14000 27.09300
C  44.91700 30.91500 27.63200
C  44.64100 31.10300 29.03000
C  45.05100 32.44500 29.25900
C  44.67700 29.67800 26.82400
C  44.09100 30.54400 30.21900
O  43.56800 29.43800 30.47700
C  43.93800 31.83400 31.19500
C  44.25300 31.34600 32.61000
O  45.22200 30.77300 32.93400
O  43.18900 31.65700 33.40800
C  43.38400 31.62900 34.84300
H  46.32800 38.21100 31.52600
H  47.90200 37.66100 25.28700
H  45.81100 31.64300 25.10400
H  44.23500 34.14900 33.20400
H  45.76700 36.36500 33.35700
H  43.51000 37.05600 33.69900
H  42.93300 35.79700 32.54400
H  43.41600 37.43400 32.01900
H  47.26100 34.50400 32.75800
H  46.66000 32.91100 32.81900
H  47.74400 34.11200 34.98100
H  46.57400 32.98400 35.06600
H  47.70900 41.07100 29.66500
H  49.03500 40.03600 30.36500
H  47.45400 39.94800 31.04800
H  50.66300 40.94800 27.05900
H  50.08200 40.62400 28.65400
H  49.16800 41.73600 27.88000
H  48.52200 35.54500 23.81000
H  46.16900 33.69700 23.43100
H  46.31700 35.59300 22.22700
H  47.32700 37.01000 22.70000
H  45.80600 36.77400 23.57400
H  48.21500 33.30700 22.43700
H  47.86400 31.86800 23.45400
H  50.35800 33.20100 23.17500
H  49.94100 32.01500 24.25800
H  49.69200 33.75700 24.68700
H  44.20400 28.97200 27.50600
H  45.62900 29.23800 26.52400
H  44.15300 29.83100 25.88100
H  42.91200 32.17200 31.04800
H  42.52900 30.96500 34.97100
H  43.38800 32.61600 35.30600
H  44.28100 31.10000 35.16600
Mg 41.12800 41.85700 26.98600
C  40.12700 44.17900 29.64000
C  41.31000 39.41000 29.48700
C  42.36200 39.82100 24.75900
C  40.70600 44.36300 24.68300
N  40.96700 41.85000 29.29200
C  40.42100 42.87500 30.17300
C  40.33700 42.44400 31.65300
C  40.94600 40.93000 31.52100
C  41.11600 40.67200 30.01100
C  42.22400 40.71400 32.30800
C  38.87900 42.58800 32.18500
C  38.60800 41.92700 33.50300
H  37.80600 42.65600 34.55800
N  41.79000 39.86100 27.08100
C  41.78200 39.01000 28.19200
C  42.26600 37.68700 27.80200
C  42.58400 37.77600 26.38500
C  42.25600 39.19200 25.97700
C  42.31400 36.43000 28.74600
C  43.16500 36.78400 25.44300
O  43.35700 36.97800 24.25000
C  43.44600 35.41200 25.89800
N  41.39000 42.02100 25.04500
C  42.03300 41.09600 24.33000
C  42.18900 41.49200 22.84300
C  41.28100 42.70200 22.76900
C  41.15000 43.12300 24.28400
C  43.62900 41.80100 22.45000
C  39.92300 42.66800 22.11700
C  38.93300 41.74000 22.78800
N  40.64100 43.87900 27.09600
C  40.41100 44.75400 26.01900
C  40.01000 46.03800 26.53900
C  39.83600 45.76900 27.92100
C  40.24100 44.45600 28.22800
C  39.64600 47.28300 25.78400
C  39.34100 46.43200 29.16700
O  38.79000 47.54000 29.34100
C  39.55800 45.41800 30.28800
C  40.41800 46.03500 31.39300
O  41.61900 46.43600 31.36700
O  39.69400 45.95900 32.54600
C  40.38200 46.43100 33.76900
H  41.17000 38.61400 30.22000
H  42.83200 39.17800 24.01200
H  40.57600 45.21400 24.01100
H  40.93200 43.17900 32.19500
H  40.17200 40.21500 31.80000
H  42.06000 39.90200 33.01700
H  42.40500 41.63800 32.85600
H  43.16100 40.69100 31.75200
H  38.23700 42.28000 31.35900
H  38.65800 43.64900 32.30200
H  39.47300 41.65400 34.10700
H  37.99100 41.04400 33.33900
H  41.63300 35.71400 28.28500
H  41.97100 36.63500 29.76000
H  43.34800 36.08500 28.73700
H  43.92500 35.36100 26.87600
H  44.12500 35.02700 25.13800
H  42.45600 34.98600 26.05800
H  41.84700 40.64300 22.25100
H  41.73700 43.52300 22.21500
H  43.81400 41.38100 21.46200
H  44.33400 41.35700 23.15200
H  43.75500 42.87300 22.29400
H  40.06700 42.45700 21.05700
H  39.41200 43.62400 22.23000
H  38.39800 41.12300 22.06700
H  38.14200 42.27600 23.31300
H  39.38000 41.04100 23.49500
H  38.67000 47.63800 26.11400
H  39.60000 47.28100 24.69500
H  40.39300 48.03500 26.03900
H  38.59300 45.21900 30.75500
H  40.75500 45.57700 34.33400
H  39.56300 47.00000 34.20900
H  41.15300 47.17200 33.55400


