%nproc=24
%mem=175gb
#p PBE1PBE/Def2SVP td=(nstates=5) density=(transition=1)

TDDFT excited states in gaussian

0 1
Mg -2.17200 16.97900 26.95200
C  -2.72400 15.15000 29.85500
C  -3.03700 19.79700 28.58300
C  -2.39300 18.59300 23.98800
C  -2.09700 13.93400 25.14200
N  -2.70100 17.33200 28.98300
C  -2.73500 16.51500 30.09200
C  -3.14200 17.32600 31.35300
C  -3.73400 18.61600 30.70600
C  -3.02700 18.64900 29.35900
C  -5.29100 18.59800 30.51100
C  -1.92300 17.38000 32.29200
C  -2.24700 17.17600 33.72300
H  -1.11900 16.77000 34.55900
N  -2.42900 18.95600 26.42700
C  -2.71700 19.97700 27.27500
C  -2.49100 21.22100 26.58300
C  -2.29300 20.85800 25.20200
C  -2.45300 19.40200 25.14600
C  -2.60700 22.55600 27.22700
C  -2.12700 21.73600 23.91900
O  -1.95600 21.25500 22.79700
C  -2.02300 23.23300 24.00700
N  -2.58000 16.29000 24.86100
C  -2.48200 17.22200 23.79200
C  -2.41100 16.57800 22.44700
C  -2.09800 15.11800 22.91000
C  -2.20000 15.11800 24.43300
C  -3.71000 16.74000 21.58700
C  -0.67500 14.61400 22.47000
C  0.50900 15.54800 22.82800
N  -2.25800 14.94800 27.37500
C  -2.16300 13.82100 26.54400
C  -2.25500 12.68900 27.38800
C  -2.44400 13.17700 28.67500
C  -2.44900 14.53100 28.60300
C  -2.11400 11.26600 26.95000
C  -2.70100 12.78200 29.98000
O  -2.81800 11.63600 30.45100
C  -2.89700 14.02900 30.89400
C  -1.76000 13.88300 31.95300
O  -0.54300 14.00600 31.72700
O  -2.34900 13.58900 33.17800
C  -1.46500 13.15200 34.30500
H  -3.42500 20.61700 29.19100
H  -2.30900 18.94200 22.95600
H  -1.87100 12.97600 24.66900
H  -3.88000 16.77500 31.93500
H  -3.40400 19.48400 31.27600
H  -5.81600 17.73100 30.91300
H  -5.54300 18.53800 29.45300
H  -5.71700 19.45700 31.02900
H  -1.55900 18.40500 32.23700
H  -1.19600 16.65200 31.93100
H  -2.95800 16.35000 33.74700
H  -2.76300 18.06300 34.09000
H  -2.53500 22.48300 28.31200
H  -3.46700 23.06800 26.79400
H  -1.74500 23.16300 26.95000
H  -2.35600 23.58400 23.03000
H  -0.98600 23.54300 24.13800
H  -2.68700 23.64600 24.76700
H  -1.57800 16.92500 21.83400
H  -2.85900 14.45200 22.50200
H  -4.54500 16.97100 22.24900
H  -4.01900 15.87700 20.99700
H  -3.69300 17.53600 20.84200
H  -0.75400 14.40000 21.40400
H  -0.59800 13.63700 22.94700
H  1.24700 15.06400 23.46800
H  0.07900 16.42200 23.31800
H  1.05200 15.89400 21.94900
H  -3.02600 10.76600 27.27600
H  -1.20700 10.86800 27.40500
H  -2.07500 11.10900 25.87200
H  -3.86000 13.93400 31.39500
H  -0.97000 12.24300 33.96400
H  -1.93600 12.93200 35.26300
H  -0.82600 14.03500 34.31800
Mg 46.63400 24.73200 28.52400
C  47.16600 26.79400 31.26900
C  45.35000 22.41900 30.76700
C  46.57500 22.51000 25.95000
C  48.10800 27.10900 26.49100
N  46.35100 24.60700 30.77200
C  46.60600 25.59200 31.71400
C  46.32600 25.14000 33.20100
C  46.05100 23.60400 32.96700
C  45.94200 23.50100 31.40100
C  47.03100 22.54000 33.47000
C  45.17300 25.95500 33.81500
C  45.53600 26.98000 34.85700
H  44.55500 27.15400 36.03000
N  45.88000 22.81500 28.28900
C  45.34100 22.11500 29.32300
C  44.95500 20.80900 28.75400
C  45.37600 20.75700 27.41600
C  45.95000 22.01600 27.13800
C  44.14400 19.85300 29.53100
C  45.30700 19.63400 26.42300
O  45.62600 19.75900 25.20800
C  44.90700 18.30200 26.75200
N  47.16200 24.82000 26.54200
C  47.02200 23.79200 25.66100
C  47.50000 24.11000 24.29900
C  47.94400 25.61100 24.43200
C  47.78600 25.82800 25.89000
C  48.58100 23.27100 23.55600
C  47.18600 26.64400 23.46000
C  45.80900 27.28400 23.80700
N  47.51200 26.55300 28.75500
C  48.03300 27.42300 27.84100
C  48.30100 28.65400 28.44600
C  48.04200 28.39000 29.84600
C  47.54000 27.10900 29.96100
C  48.74800 29.95300 27.77800
C  47.98400 29.05500 31.11600
O  48.14900 30.19900 31.48800
C  47.61900 27.93100 32.14800
C  48.80500 27.58900 32.95800
O  49.43200 26.50700 32.93800
O  49.23500 28.58100 33.76800
C  50.27600 28.29000 34.81200
H  45.00700 21.67200 31.48500
H  46.61700 21.83300 25.09400
H  48.42100 27.96800 25.89300
H  47.24300 25.06200 33.78600
H  45.06600 23.41800 33.39500
H  47.53600 22.06600 32.62800
H  46.41900 21.72900 33.86200
H  47.76900 22.88500 34.19500
H  44.55000 25.22000 34.32600
H  44.58000 26.37000 33.00000
H  45.61600 27.94300 34.35200
H  46.51600 26.85600 35.31800
H  43.21600 19.75600 28.96900
H  43.90200 20.07100 30.57200
H  44.63900 18.88200 29.54400
H  45.42400 18.07100 27.68300
H  45.01300 17.64200 25.89200
H  43.86100 18.27000 27.05700
H  46.55600 24.02200 23.76200
H  49.01300 25.68800 24.23700
H  48.17600 22.76600 22.67900
H  48.97300 22.47900 24.19500
H  49.46000 23.85000 23.27300
H  47.00900 26.03100 22.57600
H  47.98400 27.36400 23.27800
H  45.45700 27.11300 24.82400
H  45.01200 27.13000 23.07900
H  45.99000 28.35100 23.68400
H  49.68100 30.32800 28.20000
H  47.99600 30.71000 28.00000
H  48.80300 29.90800 26.69000
H  46.94500 28.37300 32.88200
H  50.12900 29.19800 35.39700
H  51.29200 28.18100 34.43400
H  50.01200 27.37900 35.35000


