%nproc=24
%mem=175gb
#p PBE1PBE/Def2SVP td=(nstates=5) density=(transition=1)

TDDFT excited states in gaussian

0 1
Mg 44.01800 2.91800 47.66100
C  42.06000 5.71500 47.01900
C  41.00600 1.01600 47.31200
C  45.79900 0.15700 47.76200
C  46.87900 4.91700 47.24100
N  41.83200 3.33000 47.09800
C  41.29400 4.59200 46.98100
C  39.79500 4.50000 46.68300
C  39.48700 3.02600 47.06600
C  40.84700 2.38200 47.12900
C  38.69200 2.74400 48.40100
C  39.44800 4.83900 45.22400
C  38.00300 4.93400 44.91400
H  37.59500 5.76800 43.64000
N  43.49300 0.83400 47.54100
C  42.21400 0.26700 47.42800
C  42.35900 -1.16200 47.43400
C  43.77600 -1.43800 47.42700
C  44.43200 -0.09700 47.60800
C  41.15600 -2.13400 47.28600
C  44.34200 -2.85900 47.34100
O  43.62700 -3.84400 47.42200
C  45.80100 -3.04100 47.16300
N  46.06200 2.62900 47.74100
C  46.53800 1.38200 47.82400
C  48.11500 1.40300 47.69600
C  48.51000 2.91300 47.47000
C  47.02000 3.56100 47.42600
C  48.93400 0.68700 48.80200
C  49.24600 3.07700 46.12300
C  50.25900 4.22700 46.06800
N  44.47400 4.92000 47.22100
C  45.65200 5.61300 47.20700
C  45.34700 7.04400 47.09000
C  43.98000 7.11700 47.10900
C  43.47900 5.83500 47.12000
C  46.36600 8.18800 47.10600
C  42.87400 8.02300 47.02800
O  42.81600 9.22700 46.97900
C  41.57700 7.14800 46.98100
C  40.79100 7.44500 48.21000
O  41.19100 7.46200 49.34100
O  39.43700 7.57100 47.85400
C  38.52600 7.78100 48.94300
H  40.02600 0.53600 47.28500
H  46.51600 -0.66500 47.82200
H  47.74600 5.57800 47.17700
H  39.30800 5.14400 47.41400
H  38.96600 2.43700 46.31200
H  37.88000 2.08800 48.08800
H  38.53600 3.57700 49.08700
H  39.33000 2.09900 49.00500
H  39.75400 4.10000 44.48300
H  39.93900 5.76800 44.93400
H  37.52300 5.35800 45.79600
H  37.59600 3.92700 44.82400
H  41.34100 -2.41600 46.24900
H  40.16900 -1.67200 47.25600
H  41.01800 -3.02000 47.90600
H  46.05900 -2.38200 46.33400
H  45.98200 -4.06600 46.83900
H  46.21200 -2.73700 48.12600
H  48.33800 0.83400 46.79300
H  49.07900 3.37000 48.27900
H  49.32800 -0.23900 48.38200
H  48.30000 0.56800 49.68000
H  49.82500 1.27000 49.03500
H  48.45300 3.22300 45.39000
H  49.73200 2.16800 45.76800
H  51.18600 3.72000 45.79800
H  50.32400 4.81900 46.98100
H  50.02100 4.90100 45.24500
H  46.22000 8.97700 46.36900
H  47.30400 7.65100 46.96300
H  46.44100 8.50600 48.14600
H  41.03900 7.44900 46.08200
H  38.18200 8.81200 48.86000
H  38.86300 7.60600 49.96500
H  37.69400 7.09100 48.80500
Mg -5.09800 24.63300 26.68400
C  -3.70200 26.36700 29.52200
C  -6.11300 22.14300 28.93500
C  -6.48000 23.09600 24.13300
C  -3.72900 27.06700 24.58100
N  -4.87100 24.33000 29.01500
C  -4.47600 25.23800 29.94600
C  -4.87000 24.81900 31.35300
C  -5.34300 23.26900 31.18300
C  -5.42800 23.22100 29.63000
C  -4.42000 22.22500 31.86000
C  -5.97200 25.74300 31.97300
C  -5.56400 26.39400 33.32000
H  -6.48200 25.91600 34.58700
N  -6.12400 22.92100 26.55900
C  -6.45400 21.95500 27.56900
C  -7.23800 20.80800 27.05300
C  -7.37200 21.15200 25.66800
C  -6.65700 22.41400 25.41400
C  -7.70400 19.61500 27.89000
C  -8.01000 20.37100 24.58300
O  -8.30600 20.80000 23.47300
C  -8.47200 18.93600 24.90400
N  -5.23600 25.12700 24.71500
C  -5.84300 24.30800 23.82600
C  -5.57400 24.69000 22.39700
C  -4.73400 25.98700 22.49800
C  -4.58300 26.13300 24.02900
C  -4.97900 23.58700 21.54700
C  -5.55400 27.25800 21.86300
C  -4.76800 28.10300 20.72000
N  -3.71900 26.23300 26.92800
C  -3.33300 27.18000 25.94900
C  -2.55400 28.22500 26.62300
C  -2.81300 27.99000 27.99900
C  -3.40400 26.73200 28.12600
C  -1.71900 29.35800 26.03400
C  -2.39200 28.46300 29.34800
O  -1.66000 29.39300 29.78700
C  -3.08100 27.46800 30.36000
C  -2.03500 26.94900 31.30200
O  -0.94600 26.57900 30.96500
O  -2.47500 27.07900 32.59000
C  -1.38400 26.91100 33.58300
H  -6.28600 21.33800 29.65200
H  -6.91400 22.63300 23.24400
H  -3.32400 27.85900 23.94800
H  -3.94900 24.82500 31.93600
H  -6.36100 23.10200 31.53600
H  -3.94100 21.58900 31.11500
H  -4.98800 21.61200 32.56100
H  -3.64700 22.62700 32.51500
H  -6.89500 25.19600 32.16700
H  -6.22100 26.57200 31.31000
H  -5.77000 27.46400 33.35800
H  -4.50500 26.32600 33.56700
H  -7.71300 19.74200 28.97300
H  -7.20000 18.67100 27.68300
H  -8.74200 19.45800 27.59500
H  -7.62000 18.31700 25.18500
H  -9.03200 18.48700 24.08300
H  -9.15600 18.98900 25.75100
H  -6.53500 24.86100 21.91000
H  -3.75100 25.85800 22.04600
H  -5.68000 23.16900 20.82400
H  -4.66700 22.69800 22.09500
H  -4.09700 23.98900 21.04800
H  -5.86900 27.99500 22.60100
H  -6.48500 26.95600 21.38400
H  -4.00100 27.42900 20.33800
H  -4.32800 29.01700 21.12100
H  -5.40200 28.28200 19.85200
H  -1.71900 30.24300 26.67000
H  -2.23000 29.70200 25.13400
H  -0.77900 28.87000 25.77600
H  -3.74400 28.08300 30.96800
H  -0.90300 25.95500 33.37700
H  -1.91800 26.79500 34.52600
H  -0.58100 27.64700 33.62200


