%nproc=24
%mem=175gb
#p PBE1PBE/Def2SVP td=(nstates=5) density=(transition=1)

TDDFT excited states in gaussian

0 1
Mg 24.10500 -6.98700 45.76300
C  26.35700 -4.60000 44.67200
C  21.60100 -5.39700 43.81500
C  21.97300 -9.61100 46.32100
C  26.64500 -8.78600 47.26000
N  24.01000 -5.13100 44.52100
C  25.10000 -4.37600 44.14200
C  24.78600 -3.32200 43.01500
C  23.18500 -3.32200 43.04600
C  22.83700 -4.67700 43.88000
C  22.42500 -2.06700 43.62200
C  25.32600 -3.65200 41.66800
C  26.32400 -2.73600 40.98600
H  26.30600 -2.74400 39.44900
N  22.01900 -7.39700 45.22300
C  21.19700 -6.55000 44.45600
C  19.87600 -7.09000 44.39600
C  20.00000 -8.43900 45.00800
C  21.38600 -8.56500 45.55600
C  18.73000 -6.47100 43.58900
C  18.81400 -9.41900 45.03000
O  17.69600 -9.24400 44.55400
C  19.11500 -10.83500 45.37300
N  24.32600 -9.09200 46.54400
C  23.25000 -9.84400 46.81300
C  23.77300 -11.22400 47.20900
C  25.30200 -11.00000 47.62300
C  25.47100 -9.49100 47.13900
C  22.98600 -11.74600 48.46300
C  26.42600 -11.94400 47.02800
C  27.21200 -12.87800 47.93600
N  26.13500 -6.72100 46.02000
C  27.06100 -7.52500 46.69200
C  28.37300 -6.96800 46.56500
C  28.18100 -5.79800 45.76700
C  26.75600 -5.70300 45.52000
C  29.66500 -7.49100 47.10900
C  28.78000 -4.66700 45.18800
O  29.95100 -4.34500 45.21400
C  27.66100 -3.89000 44.39200
C  27.78800 -2.45400 44.68600
O  28.26300 -1.64500 43.89700
O  27.32400 -2.18500 45.96500
C  27.46400 -0.76100 46.34400
H  20.74200 -4.97500 43.29000
H  21.20500 -10.36000 46.52700
H  27.44000 -9.39000 47.70200
H  25.15500 -2.34400 43.32200
H  22.85800 -3.53200 42.02700
H  23.15600 -1.26300 43.70700
H  21.93600 -2.23300 44.58200
H  21.62700 -1.83100 42.91900
H  24.47200 -3.65600 40.98900
H  25.82900 -4.61800 41.69600
H  27.32300 -3.08700 41.24300
H  26.19000 -1.68500 41.24100
H  18.88600 -5.59200 42.96400
H  17.97200 -6.31900 44.35700
H  18.31100 -7.32700 43.06100
H  19.07300 -11.15900 46.41200
H  20.04000 -11.18300 44.91300
H  18.31700 -11.42600 44.92200
H  23.69500 -11.95400 46.40300
H  25.39200 -10.93900 48.70700
H  22.65700 -12.75800 48.22700
H  22.13300 -11.13900 48.76900
H  23.59300 -11.78000 49.36800
H  27.10900 -11.25400 46.53300
H  25.90100 -12.60500 46.33700
H  28.14800 -13.06200 47.40800
H  26.68200 -13.82800 48.00800
H  27.49600 -12.55500 48.93700
H  30.42900 -6.77800 46.79800
H  29.79900 -8.49600 46.71000
H  29.72100 -7.55200 48.19600
H  27.94500 -4.03400 43.34900
H  28.43100 -0.59300 46.81800
H  26.59100 -0.52900 46.95400
H  27.37100 -0.10100 45.48200
Mg 8.73000 48.00700 24.72600
C  6.54700 48.35400 27.54300
C  11.38500 48.83200 26.74200
C  10.78900 48.16000 22.05300
C  5.85600 48.14800 22.68600
N  8.91100 48.51400 26.88400
C  7.92400 48.53400 27.88200
C  8.57600 48.79800 29.21500
C  9.96600 49.43600 28.79200
C  10.09000 48.94100 27.32100
C  9.83300 50.99700 28.89900
C  8.62100 47.55100 30.16700
C  8.25400 47.92900 31.51300
H  7.91700 46.69900 32.49700
N  10.84000 48.27700 24.55100
C  11.74400 48.56500 25.49500
C  13.05300 48.54500 24.91800
C  12.92300 48.37200 23.55600
C  11.42000 48.19500 23.29600
C  14.33000 48.90700 25.74100
C  14.02400 48.24600 22.48300
O  13.70400 48.13100 21.32700
C  15.48100 48.17400 22.87500
N  8.33400 48.41200 22.66100
C  9.38600 48.28200 21.76100
C  8.87500 48.15200 20.36300
C  7.28100 48.12500 20.55900
C  7.12600 48.16700 22.06100
C  9.40100 49.20400 19.44600
C  6.46300 46.89200 19.88400
C  5.44500 47.20900 18.86100
N  6.61400 48.15800 24.98900
C  5.61400 48.20500 24.04400
C  4.27700 48.23000 24.78200
C  4.59000 48.17400 26.15500
C  6.02700 48.18500 26.22900
C  2.90700 48.32700 24.09700
C  3.98700 48.26800 27.45000
O  2.78100 48.32100 27.78100
C  5.21700 48.56000 28.40400
C  5.00500 47.63900 29.64300
O  5.64000 46.57500 29.76100
O  4.15000 48.22900 30.51400
C  3.80400 47.24100 31.59300
H  12.25300 48.87100 27.40400
H  11.43600 48.18800 21.17300
H  4.90900 48.09600 22.14500
H  8.00400 49.60800 29.66700
H  10.77600 49.10700 29.44200
H  9.23900 51.44000 28.10000
H  10.83100 51.43100 28.94300
H  9.35800 51.24300 29.84900
H  9.67300 47.28200 30.26500
H  8.05700 46.70900 29.76500
H  7.29600 48.44900 31.52800
H  9.07600 48.51700 31.92200
H  14.96900 48.03700 25.59000
H  14.16900 49.02000 26.81300
H  14.74800 49.84700 25.38100
H  16.11600 48.17200 21.98900
H  15.42200 47.21200 23.38400
H  15.69700 49.01800 23.53000
H  9.23500 47.16500 20.07200
H  6.89900 49.04100 20.10900
H  10.07700 48.66800 18.78100
H  10.03800 49.93000 19.95100
H  8.64800 49.76300 18.89000
H  5.91200 46.49600 20.73700
H  7.19200 46.14700 19.56800
H  4.44900 46.91600 19.19200
H  5.77800 46.47600 18.12700
H  5.55100 48.21100 18.44300
H  2.66500 49.38900 24.07600
H  2.13000 47.78700 24.63800
H  2.97200 47.86900 23.11000
H  5.09400 49.61500 28.64500
H  3.12300 46.44700 31.28700
H  3.39400 47.68200 32.50100
H  4.75700 46.82700 31.92300


