%nproc=24
%mem=175gb
#p PBE1PBE/Def2SVP td=(nstates=5) density=(transition=1)

TDDFT excited states in gaussian

0 1
Mg 2.79300 -0.99900 44.50000
C  6.05500 -0.17400 43.38400
C  1.60600 1.42400 42.43900
C  -0.30000 -2.33900 44.94400
C  4.15400 -3.74300 46.12200
N  3.83100 0.31200 42.98000
C  5.15200 0.58300 42.74000
C  5.32600 1.71500 41.79700
C  3.88200 2.40600 41.78900
C  3.05100 1.33800 42.41400
C  3.87900 3.72200 42.55000
C  5.83700 1.13000 40.47100
C  7.17200 1.73800 39.86600
H  7.22000 2.30200 38.41400
N  0.88600 -0.54700 43.86000
C  0.60800 0.57500 43.06700
C  -0.81500 0.72700 43.01300
C  -1.42800 -0.37100 43.70600
C  -0.26400 -1.10400 44.27200
C  -1.44600 1.92200 42.31000
C  -2.89700 -0.69100 43.87000
O  -3.66200 0.20700 43.41300
C  -3.55500 -1.99100 44.41300
N  1.99700 -2.80800 45.42300
C  0.68200 -3.10900 45.50100
C  0.40600 -4.46500 46.20300
C  1.84700 -4.85700 46.68000
C  2.74500 -3.73600 45.97300
C  -0.59100 -4.26300 47.33000
C  2.30300 -6.22900 46.28700
C  2.45600 -7.17500 47.44700
N  4.64000 -1.73900 44.89100
C  5.11000 -2.84400 45.61200
C  6.47200 -2.80600 45.78400
C  6.89300 -1.74700 44.95400
C  5.75400 -1.18800 44.37900
C  7.21700 -3.66700 46.78200
C  8.08600 -0.96000 44.54300
O  9.22400 -1.08600 44.87400
C  7.50800 0.01200 43.44600
C  8.17400 1.35500 43.65200
O  9.07700 1.80400 42.94600
O  7.57500 2.04000 44.73700
C  8.09900 3.39600 44.89800
H  1.22700 2.33000 41.96100
H  -1.28000 -2.75100 45.19600
H  4.63400 -4.67900 46.41300
H  6.07700 2.40100 42.18900
H  3.61200 2.61400 40.75400
H  4.50800 3.70600 43.43900
H  2.87200 3.89300 42.93200
H  4.11600 4.58800 41.93200
H  5.03800 1.25300 39.74000
H  5.94100 0.04500 40.47900
H  7.81400 0.85800 39.91300
H  7.65200 2.40300 40.58300
H  -1.04200 2.04400 41.30500
H  -1.16400 2.79800 42.89400
H  -2.51800 1.88200 42.11200
H  -3.31300 -1.96500 45.47500
H  -3.08800 -2.84600 43.92400
H  -4.62700 -2.03100 44.21800
H  -0.01900 -5.22600 45.54900
H  1.95500 -4.64800 47.74400
H  -1.44700 -3.72600 46.92100
H  -0.11100 -3.66200 48.10300
H  -0.92100 -5.12200 47.91300
H  3.28200 -6.24400 45.80800
H  1.69000 -6.76000 45.55900
H  1.86400 -8.06400 47.23300
H  2.03500 -6.78100 48.37200
H  3.49000 -7.42400 47.68800
H  8.18600 -3.18800 46.92600
H  7.36400 -4.68500 46.42200
H  6.59100 -3.65900 47.67400
H  7.98500 -0.36600 42.54100
H  7.35600 4.03900 45.37000
H  8.23900 3.88500 43.93500
H  9.04800 3.42700 45.43400
Mg 46.48800 44.18100 43.47500
C  43.15300 43.46100 43.30400
C  47.10800 40.75600 42.73500
C  49.77100 44.92500 43.24200
C  45.73500 47.57600 43.26500
N  45.18800 42.33600 42.67700
C  43.85400 42.27500 42.94800
C  43.32200 40.91600 42.58600
C  44.62300 40.02800 42.36600
C  45.76600 41.06300 42.61200
C  44.58600 38.65100 42.92100
C  42.20900 40.77400 41.44300
C  42.22600 41.75800 40.31100
H  42.13200 41.19200 38.90100
N  48.19100 42.96300 43.28600
C  48.25100 41.62900 43.02600
C  49.60100 41.16100 42.91600
C  50.41700 42.37800 43.18500
C  49.45800 43.50200 43.25700
C  50.07700 39.81200 42.65600
C  51.92500 42.49800 43.35200
O  52.62900 41.58000 43.12100
C  52.68900 43.74400 43.70500
N  47.56100 45.95400 43.15400
C  48.89600 45.98900 43.28400
C  49.46200 47.47200 42.97200
C  48.15100 48.31100 43.36800
C  47.10700 47.23300 43.19900
C  50.71200 47.88700 43.75300
C  48.00000 49.60500 42.54800
C  47.68500 50.93800 43.23700
N  44.79500 45.31200 43.20500
C  44.59800 46.68700 43.17600
C  43.22600 47.01600 43.20700
C  42.57500 45.79800 43.31300
C  43.57500 44.76200 43.30900
C  42.60800 48.38000 43.21500
C  41.37100 45.09400 43.47000
O  40.23700 45.56500 43.52900
C  41.64700 43.57300 43.29900
C  40.96100 42.96000 44.51100
O  40.13800 42.02200 44.45100
O  41.52200 43.52500 45.63200
C  41.27100 42.99100 46.99300
H  47.22800 39.72900 42.38400
H  50.80000 45.16300 42.96500
H  45.50900 48.64400 43.27100
H  42.74600 40.53700 43.43100
H  44.70600 39.88500 41.28900
H  45.47200 38.39300 43.50100
H  44.34100 37.90700 42.16300
H  43.78400 38.58200 43.65600
H  41.18300 40.86000 41.80100
H  42.35800 39.83500 40.90900
H  42.98200 42.53800 40.39500
H  41.27000 42.28200 40.33700
H  49.35900 39.10300 43.06700
H  51.06100 39.59900 43.07200
H  50.12200 39.70100 41.57200
H  51.89900 44.16700 44.32600
H  52.89000 44.37800 42.84200
H  53.62800 43.61700 44.24400
H  49.58000 47.51900 41.88900
H  48.02200 48.62000 44.40500
H  50.38700 48.59700 44.51400
H  51.51000 48.17200 43.06800
H  51.16800 47.06300 44.30100
H  47.21200 49.41800 41.81800
H  48.88600 49.70600 41.92100
H  48.29300 51.80900 42.99200
H  47.59300 50.84600 44.32000
H  46.63600 51.07800 42.97800
H  41.68900 48.46100 43.79600
H  42.39500 48.66700 42.18500
H  43.24900 49.14100 43.66200
H  41.15500 43.34600 42.35400
H  42.16000 43.01500 47.62300
H  40.93100 41.96000 46.89400
H  40.51300 43.43800 47.63500


