%nproc=24
%mem=175gb
#p PBE1PBE/Def2SVP td=(nstates=5) density=(transition=1)

TDDFT excited states in gaussian

0 1
Mg 24.10500 -6.98700 45.76300
C  26.35700 -4.60000 44.67200
C  21.60100 -5.39700 43.81500
C  21.97300 -9.61100 46.32100
C  26.64500 -8.78600 47.26000
N  24.01000 -5.13100 44.52100
C  25.10000 -4.37600 44.14200
C  24.78600 -3.32200 43.01500
C  23.18500 -3.32200 43.04600
C  22.83700 -4.67700 43.88000
C  22.42500 -2.06700 43.62200
C  25.32600 -3.65200 41.66800
C  26.32400 -2.73600 40.98600
H  26.30600 -2.74400 39.44900
N  22.01900 -7.39700 45.22300
C  21.19700 -6.55000 44.45600
C  19.87600 -7.09000 44.39600
C  20.00000 -8.43900 45.00800
C  21.38600 -8.56500 45.55600
C  18.73000 -6.47100 43.58900
C  18.81400 -9.41900 45.03000
O  17.69600 -9.24400 44.55400
C  19.11500 -10.83500 45.37300
N  24.32600 -9.09200 46.54400
C  23.25000 -9.84400 46.81300
C  23.77300 -11.22400 47.20900
C  25.30200 -11.00000 47.62300
C  25.47100 -9.49100 47.13900
C  22.98600 -11.74600 48.46300
C  26.42600 -11.94400 47.02800
C  27.21200 -12.87800 47.93600
N  26.13500 -6.72100 46.02000
C  27.06100 -7.52500 46.69200
C  28.37300 -6.96800 46.56500
C  28.18100 -5.79800 45.76700
C  26.75600 -5.70300 45.52000
C  29.66500 -7.49100 47.10900
C  28.78000 -4.66700 45.18800
O  29.95100 -4.34500 45.21400
C  27.66100 -3.89000 44.39200
C  27.78800 -2.45400 44.68600
O  28.26300 -1.64500 43.89700
O  27.32400 -2.18500 45.96500
C  27.46400 -0.76100 46.34400
H  20.74200 -4.97500 43.29000
H  21.20500 -10.36000 46.52700
H  27.44000 -9.39000 47.70200
H  25.15500 -2.34400 43.32200
H  22.85800 -3.53200 42.02700
H  23.15600 -1.26300 43.70700
H  21.93600 -2.23300 44.58200
H  21.62700 -1.83100 42.91900
H  24.47200 -3.65600 40.98900
H  25.82900 -4.61800 41.69600
H  27.32300 -3.08700 41.24300
H  26.19000 -1.68500 41.24100
H  18.88600 -5.59200 42.96400
H  17.97200 -6.31900 44.35700
H  18.31100 -7.32700 43.06100
H  19.07300 -11.15900 46.41200
H  20.04000 -11.18300 44.91300
H  18.31700 -11.42600 44.92200
H  23.69500 -11.95400 46.40300
H  25.39200 -10.93900 48.70700
H  22.65700 -12.75800 48.22700
H  22.13300 -11.13900 48.76900
H  23.59300 -11.78000 49.36800
H  27.10900 -11.25400 46.53300
H  25.90100 -12.60500 46.33700
H  28.14800 -13.06200 47.40800
H  26.68200 -13.82800 48.00800
H  27.49600 -12.55500 48.93700
H  30.42900 -6.77800 46.79800
H  29.79900 -8.49600 46.71000
H  29.72100 -7.55200 48.19600
H  27.94500 -4.03400 43.34900
H  28.43100 -0.59300 46.81800
H  26.59100 -0.52900 46.95400
H  27.37100 -0.10100 45.48200
Mg -2.51200 34.32000 26.71000
C  -3.70600 32.37000 29.49400
C  -1.09600 36.45200 28.85600
C  -2.23500 36.47200 24.15600
C  -4.45400 32.24200 24.65700
N  -2.47200 34.41100 28.88300
C  -2.84200 33.43600 29.82500
C  -2.27900 33.77800 31.25700
C  -1.51600 35.11400 31.00700
C  -1.64900 35.32300 29.47500
C  -1.96800 36.32500 31.78300
C  -1.39500 32.57400 31.88800
C  -1.81300 32.12300 33.29300
H  -0.66900 32.23700 34.36800
N  -1.63700 36.15800 26.50500
C  -1.11000 36.89500 27.48800
C  -0.61000 38.17800 26.99100
C  -1.04200 38.20400 25.62000
C  -1.69000 36.91400 25.36100
C  0.10900 39.14600 27.82900
C  -0.90500 39.45100 24.69100
O  -1.22300 39.41800 23.51400
C  -0.35500 40.75800 25.16600
N  -3.22300 34.33100 24.76300
C  -2.85500 35.30500 23.84100
C  -3.39300 34.95800 22.41400
C  -3.78700 33.44000 22.55100
C  -3.77600 33.28900 24.07200
C  -4.45800 35.91300 21.78300
C  -2.78800 32.46000 21.87700
C  -3.33300 31.25600 21.15100
N  -3.86100 32.67700 26.98500
C  -4.55900 31.95500 26.05900
C  -5.21600 30.76800 26.76200
C  -4.86600 30.86600 28.08700
C  -4.10200 32.07900 28.18800
C  -5.97600 29.69500 26.01600
C  -4.98700 30.30300 29.42000
O  -5.62100 29.26000 29.68400
C  -4.28200 31.35300 30.46900
C  -5.23900 32.03400 31.42500
O  -6.23700 32.64900 31.00000
O  -4.96700 31.73200 32.76000
C  -6.09800 32.02100 33.63400
H  -0.51900 37.13000 29.48800
H  -2.04400 37.20300 23.36800
H  -4.93400 31.57200 23.94000
H  -3.19000 33.89300 31.84400
H  -0.52800 34.94900 31.43900
H  -2.83400 36.13100 32.41600
H  -2.36000 36.92300 30.96100
H  -1.18900 36.74500 32.42000
H  -0.38600 32.98500 31.87000
H  -1.36700 31.74700 31.17900
H  -2.21200 31.11400 33.18900
H  -2.62300 32.76200 33.64700
H  -0.25500 40.16900 27.91900
H  1.01900 39.36100 27.27000
H  0.49900 38.75500 28.76900
H  0.66500 40.53600 25.48200
H  -0.91700 41.02300 26.06200
H  -0.46600 41.44500 24.32800
H  -2.50600 35.02500 21.78400
H  -4.81400 33.23900 22.24700
H  -4.50900 36.75000 22.47900
H  -5.42000 35.44200 21.58300
H  -4.08600 36.40600 20.88400
H  -2.24500 32.16900 22.77600
H  -2.06500 32.93000 21.21000
H  -2.75000 31.18100 20.23300
H  -4.37700 31.36900 20.85700
H  -3.03100 30.39100 21.74200
H  -5.97600 29.97600 24.96300
H  -7.01700 29.73400 26.33600
H  -5.54700 28.71900 26.24200
H  -3.48200 30.82800 30.99100
H  -6.59400 31.14900 34.05800
H  -6.86800 32.64200 33.17600
H  -5.69700 32.60500 34.46200


