%nproc=24
%mem=175gb
#p PBE1PBE/Def2SVP td=(nstates=5) density=(transition=1)

TDDFT excited states in gaussian

0 1
Mg 52.53200 24.27200 45.27800
C  49.69500 26.14500 43.97100
C  51.04500 21.43900 44.03200
C  55.55800 22.86200 45.08400
C  53.78600 27.15600 46.56500
N  50.65200 23.90000 43.94600
C  49.60000 24.82500 43.60600
C  48.41500 24.05300 43.01900
C  48.70000 22.56700 43.38700
C  50.22600 22.57000 43.84000
C  47.76900 22.00700 44.56400
C  48.04400 24.34300 41.59400
C  49.09500 25.06000 40.71400
H  48.96900 25.39700 39.21700
N  53.20200 22.33000 44.76700
C  52.42300 21.31600 44.25500
C  53.27600 20.09300 44.13100
C  54.57100 20.56600 44.32700
C  54.53600 21.98000 44.69300
C  52.68600 18.78600 43.73500
C  55.85700 19.70500 44.16100
O  55.72900 18.56500 43.75100
C  57.24900 20.21900 44.32400
N  54.40600 25.03400 45.62800
C  55.48900 24.15600 45.60300
C  56.74800 24.82300 46.15700
C  56.16900 26.07400 46.91200
C  54.72900 26.07700 46.39400
C  57.69100 23.98800 47.06100
C  56.92500 27.42300 46.68900
C  57.79700 27.94700 47.92000
N  51.87600 26.25900 45.36900
C  52.48600 27.32200 46.01900
C  51.58600 28.44900 46.02500
C  50.55800 28.02100 45.17400
C  50.79100 26.66600 44.83200
C  51.91200 29.79900 46.68700
C  49.30500 28.37700 44.58200
O  48.71800 29.46600 44.74300
C  48.58400 27.14400 43.87700
C  48.23600 27.64400 42.53200
O  48.98500 28.23500 41.74700
O  46.97500 27.21700 42.27700
C  46.32700 27.76200 41.04300
H  50.57900 20.54200 43.62000
H  56.53800 22.38300 45.02800
H  54.16100 28.03300 47.09600
H  47.65100 24.44400 43.69100
H  48.71700 21.90900 42.51800
H  47.15300 21.26400 44.05900
H  47.21300 22.83200 45.01000
H  48.44700 21.51600 45.26300
H  47.08700 24.86300 41.63300
H  47.84600 23.33500 41.22800
H  49.99900 24.46000 40.82300
H  49.29400 26.05200 41.12000
H  53.06600 18.57900 42.73500
H  51.60100 18.88400 43.75400
H  52.95100 18.03100 44.47600
H  57.60500 20.97300 43.62300
H  58.00300 19.45100 44.15400
H  57.23000 20.50700 45.37500
H  57.21200 25.04800 45.19600
H  56.15200 25.77400 47.96000
H  58.56700 23.60300 46.53800
H  57.16500 23.10200 47.41500
H  57.94800 24.60600 47.92200
H  56.28400 28.25100 46.38500
H  57.54500 27.23200 45.81300
H  58.71300 28.26700 47.42400
H  58.01300 27.19900 48.68300
H  57.20100 28.70700 48.42400
H  51.05000 30.36300 47.04400
H  52.35800 30.33200 45.84800
H  52.47600 29.64100 47.60600
H  47.71400 26.85200 44.46700
H  45.32600 27.34000 40.94700
H  46.88700 27.48700 40.14900
H  46.32300 28.83200 41.24600
Mg 46.36700 34.87300 28.25800
C  44.78600 32.87200 30.57800
C  46.38600 37.42000 30.77600
C  47.55600 36.98300 26.07000
C  45.97900 32.44300 25.82700
N  45.44200 35.14400 30.41100
C  45.07300 34.11700 31.15800
C  45.12500 34.48000 32.66900
C  45.08600 36.04500 32.56800
C  45.67500 36.28100 31.16800
C  43.63100 36.61800 32.70900
C  46.46000 33.91200 33.20000
C  46.69200 34.00900 34.71400
H  45.77100 34.85100 35.57400
N  47.01100 36.84800 28.33900
C  46.96000 37.70200 29.49400
C  47.69800 38.90500 29.13400
C  48.14000 38.73300 27.78500
C  47.54200 37.48800 27.30500
C  47.97900 40.11100 30.10600
C  49.09900 39.67100 26.98000
O  49.27000 39.43700 25.81500
C  49.74700 40.84400 27.64100
N  46.80600 34.69600 26.23000
C  47.30800 35.72100 25.50500
C  47.46400 35.39100 24.02100
C  47.08600 33.89200 23.98700
C  46.58100 33.65400 25.46800
C  46.60500 36.26500 23.03500
C  48.11600 32.92900 23.45400
C  49.59100 32.99000 23.91900
N  45.55600 33.03000 28.12500
C  45.46900 32.14000 27.09300
C  44.91700 30.91500 27.63200
C  44.64100 31.10300 29.03000
C  45.05100 32.44500 29.25900
C  44.67700 29.67800 26.82400
C  44.09100 30.54400 30.21900
O  43.56800 29.43800 30.47700
C  43.93800 31.83400 31.19500
C  44.25300 31.34600 32.61000
O  45.22200 30.77300 32.93400
O  43.18900 31.65700 33.40800
C  43.38400 31.62900 34.84300
H  46.32800 38.21100 31.52600
H  47.90200 37.66100 25.28700
H  45.81100 31.64300 25.10400
H  44.23500 34.14900 33.20400
H  45.76700 36.36500 33.35700
H  43.51000 37.05600 33.69900
H  42.93300 35.79700 32.54400
H  43.41600 37.43400 32.01900
H  47.26100 34.50400 32.75800
H  46.66000 32.91100 32.81900
H  47.74400 34.11200 34.98100
H  46.57400 32.98400 35.06600
H  47.70900 41.07100 29.66500
H  49.03500 40.03600 30.36500
H  47.45400 39.94800 31.04800
H  50.66300 40.94800 27.05900
H  50.08200 40.62400 28.65400
H  49.16800 41.73600 27.88000
H  48.52200 35.54500 23.81000
H  46.16900 33.69700 23.43100
H  46.31700 35.59300 22.22700
H  47.32700 37.01000 22.70000
H  45.80600 36.77400 23.57400
H  48.21500 33.30700 22.43700
H  47.86400 31.86800 23.45400
H  50.35800 33.20100 23.17500
H  49.94100 32.01500 24.25800
H  49.69200 33.75700 24.68700
H  44.20400 28.97200 27.50600
H  45.62900 29.23800 26.52400
H  44.15300 29.83100 25.88100
H  42.91200 32.17200 31.04800
H  42.52900 30.96500 34.97100
H  43.38800 32.61600 35.30600
H  44.28100 31.10000 35.16600


