%nproc=24
%mem=175gb
#p PBE1PBE/Def2SVP td=(nstates=5) density=(transition=1)

TDDFT excited states in gaussian

0 1
Mg 35.66000 1.74600 29.23200
C  33.47200 2.34100 31.89500
C  38.12100 1.24100 31.62500
C  37.79000 1.61500 26.77900
C  33.01700 2.53400 27.01000
N  35.87600 2.18500 31.54100
C  34.82500 2.24700 32.36500
C  35.34000 2.18200 33.76400
C  36.88000 2.27300 33.63100
C  37.00600 1.84600 32.18200
C  37.59500 3.59000 33.93800
C  34.89600 0.87200 34.48900
C  34.26200 0.97200 35.91400
H  34.68800 2.14100 36.85600
N  37.69800 1.31100 29.19900
C  38.45500 0.95400 30.30700
C  39.74800 0.60100 29.81800
C  39.73600 0.82500 28.38300
C  38.39000 1.25600 28.03600
C  40.94400 0.20000 30.70900
C  40.89400 0.72300 27.34900
O  40.78100 0.94900 26.18600
C  42.22500 0.23800 27.88900
N  35.39600 2.02600 27.20700
C  36.47200 1.98000 26.39000
C  36.13800 2.22700 24.89300
C  34.55100 2.25100 24.96900
C  34.26500 2.24500 26.46600
C  36.85300 3.59900 24.36100
C  33.86400 1.14100 24.11300
C  33.41700 -0.12600 24.82000
N  33.60700 2.29400 29.34300
C  32.66300 2.48800 28.37100
C  31.34700 2.76700 29.04600
C  31.64200 2.71200 30.42700
C  33.04500 2.46100 30.58700
C  30.05700 3.20300 28.40600
C  31.07900 2.83900 31.76900
O  29.91300 3.09600 32.08200
C  32.20100 2.44500 32.72500
C  32.26400 3.54000 33.75100
O  32.77700 4.63100 33.58200
O  31.49900 3.13900 34.75300
C  31.03100 4.13600 35.70300
H  38.92600 1.22300 32.36200
H  38.44500 1.39800 25.93300
H  32.19900 2.76200 26.32300
H  34.93300 3.02400 34.32300
H  37.28500 1.57100 34.36000
H  36.96900 4.41100 34.28800
H  38.13600 3.93900 33.05800
H  38.32400 3.36100 34.71500
H  35.66700 0.10200 34.50700
H  34.14500 0.53000 33.77700
H  34.54900 0.03000 36.38300
H  33.17800 1.00900 35.80900
H  41.84000 0.79100 30.51900
H  41.29800 -0.80900 30.49700
H  40.73900 0.22800 31.78000
H  42.13800 -0.68600 28.46100
H  42.66900 1.05000 28.46500
H  42.94900 0.14100 27.08000
H  36.48000 1.41700 24.24900
H  34.11700 3.15500 24.54200
H  36.02900 4.30300 24.24400
H  37.25500 3.51600 23.35100
H  37.53000 4.05700 25.08300
H  34.65800 0.79900 23.44900
H  33.05000 1.52900 23.50100
H  34.25200 -0.36700 25.47900
H  33.30700 -0.80900 23.97800
H  32.56000 -0.11800 25.49300
H  30.04900 3.41600 27.33700
H  29.71100 4.11800 28.88700
H  29.33300 2.43700 28.68200
H  31.98900 1.57300 33.34400
H  31.22900 5.19300 35.52800
H  31.60100 3.89200 36.60000
H  30.07700 3.79700 36.10700
Mg -9.26600 18.27700 42.96500
C  -5.81100 17.58000 42.98100
C  -8.47400 21.42900 42.13900
C  -12.47500 18.67000 42.48700
C  -9.75200 14.74100 43.14100
N  -7.34400 19.34600 42.56200
C  -6.06200 18.93000 42.69300
C  -5.04000 20.02200 42.45000
C  -5.98500 21.29000 42.45900
C  -7.37700 20.70000 42.36700
C  -5.82600 22.23200 43.72300
C  -4.08200 20.00700 41.18000
C  -4.36600 19.09100 39.96000
H  -3.96500 19.61900 38.53200
N  -10.31800 19.93500 42.50700
C  -9.83700 21.10100 42.09700
C  -10.97100 21.97200 41.68400
C  -12.19800 21.17200 41.95900
C  -11.67600 19.85500 42.32500
C  -10.82500 23.41900 41.29700
C  -13.61600 21.63300 41.74500
O  -13.81100 22.79100 41.38400
C  -14.89900 20.73300 41.88300
N  -10.94800 16.84400 42.71500
C  -12.12100 17.37600 42.70200
C  -13.18200 16.19300 42.82000
C  -12.25700 14.97500 42.77500
C  -10.85500 15.54600 42.86600
C  -14.16200 16.18100 44.00500
C  -12.30000 14.18000 41.36900
C  -12.88700 12.75700 41.40300
N  -8.10600 16.49700 42.98200
C  -8.41600 15.17700 43.17700
C  -7.19300 14.39200 43.48700
C  -6.09500 15.27800 43.29700
C  -6.75800 16.56600 43.10100
C  -7.09800 12.86900 43.72900
C  -4.68100 15.45100 43.26700
O  -3.71100 14.67400 43.28400
C  -4.42500 16.97400 43.13600
C  -3.61000 17.39300 44.36300
O  -2.45500 17.69200 44.51200
O  -4.50700 17.60300 45.41600
C  -3.95600 18.13500 46.70100
H  -8.18700 22.44600 41.86300
H  -13.54300 18.86100 42.35700
H  -9.93500 13.71100 43.45300
H  -4.44700 20.04900 43.36400
H  -5.75600 21.91400 41.59500
H  -5.11000 21.81600 44.43100
H  -6.79600 22.11100 44.20400
H  -5.58800 23.24500 43.39800
H  -3.08000 19.78600 41.54800
H  -3.99700 21.02300 40.79300
H  -5.44200 18.91700 39.97000
H  -3.77000 18.17900 39.94600
H  -11.77100 23.96000 41.28900
H  -10.25700 23.43000 40.36600
H  -10.11700 23.80900 42.02900
H  -15.08400 20.15000 42.78600
H  -14.85100 19.96100 41.11500
H  -15.81700 21.30800 41.76500
H  -13.87700 16.19700 41.98100
H  -12.39400 14.18200 43.51100
H  -14.02600 17.04700 44.65300
H  -14.09900 15.25100 44.57100
H  -15.20700 16.25900 43.70500
H  -11.30400 14.05300 40.94700
H  -12.88100 14.81200 40.69700
H  -12.44900 12.05100 40.69700
H  -13.92900 12.87300 41.10500
H  -12.71100 12.44000 42.43100
H  -7.98800 12.30200 43.45800
H  -6.94100 12.78400 44.80400
H  -6.18900 12.50600 43.25000
H  -3.84800 17.16600 42.23200
H  -2.93200 17.88100 46.97400
H  -4.58000 17.65400 47.45400
H  -4.05900 19.20000 46.91000


