%nproc=24
%mem=175gb
#p PBE1PBE/Def2SVP td=(nstates=5) density=(transition=1)

TDDFT excited states in gaussian

0 1
Mg 3.63500 0.41800 44.38500
C  6.38200 2.41600 44.15700
C  1.85600 2.91600 42.76500
C  1.03400 -1.70200 44.27100
C  5.65900 -2.27700 45.39800
N  4.15300 2.34100 43.32400
C  5.35700 2.93700 43.43600
C  5.44100 4.20100 42.66100
C  3.82600 4.53100 42.53700
C  3.19500 3.17000 42.89900
C  3.38200 5.72400 43.43400
C  6.08500 3.93300 41.31000
C  5.45900 2.81500 40.35400
H  5.36900 3.04800 38.85100
N  1.72200 0.57100 43.63100
C  1.11700 1.74400 43.11300
C  -0.27500 1.47100 42.97900
C  -0.55500 0.16000 43.34400
C  0.72000 -0.40500 43.81700
C  -1.17200 2.58100 42.47000
C  -1.87000 -0.57100 43.21500
O  -2.81800 0.09700 42.73200
C  -2.07300 -1.97000 43.39000
N  3.45400 -1.75300 44.57800
C  2.23500 -2.36400 44.54600
C  2.35900 -3.87900 44.83600
C  3.87500 -4.03200 45.19700
C  4.39100 -2.62000 44.97700
C  1.41200 -4.36800 45.91100
C  4.59000 -5.14900 44.26500
C  5.56000 -6.06500 45.02000
N  5.66900 0.04500 44.75000
C  6.32000 -0.99300 45.33600
C  7.63200 -0.52000 45.68500
C  7.75100 0.85800 45.29200
C  6.52700 1.13100 44.70400
C  8.77000 -1.38000 46.11700
C  8.57600 2.01500 45.15500
O  9.73800 2.10000 45.57200
C  7.71800 3.05600 44.46000
C  7.61900 4.24800 45.33700
O  8.63700 4.80700 45.69500
O  6.34700 4.66100 45.59200
C  6.23700 5.85100 46.43800
H  1.24500 3.78600 42.51600
H  0.13600 -2.29700 44.44900
H  6.31200 -3.00800 45.88000
H  6.00100 5.03200 43.09000
H  3.58600 4.93100 41.55100
H  2.93500 6.50500 42.82000
H  4.28700 6.13300 43.88400
H  2.70200 5.45700 44.24400
H  7.14700 3.76700 41.49200
H  6.12500 4.93200 40.87600
H  4.43400 2.52000 40.57900
H  6.17000 1.99900 40.48000
H  -1.10900 2.52700 41.38300
H  -0.76100 3.53900 42.78600
H  -2.21500 2.54500 42.78600
H  -2.88500 -2.34300 42.76500
H  -2.15000 -2.27300 44.43500
H  -1.20000 -2.43300 42.93200
H  2.14200 -4.33200 43.86800
H  3.97500 -4.21900 46.26600
H  0.70500 -3.61400 46.25600
H  1.77700 -4.91000 46.78300
H  0.73700 -5.01500 45.35000
H  5.15900 -4.73200 43.43400
H  3.86400 -5.76700 43.73700
H  5.09600 -7.04700 45.10800
H  5.65500 -5.69200 46.04000
H  6.52700 -6.16100 44.52600
H  8.71100 -1.83500 47.10500
H  9.65100 -0.74100 46.04600
H  8.91100 -2.23600 45.45700
H  8.25000 3.32500 43.54700
H  6.78900 6.65600 45.95200
H  6.55900 5.68400 47.46600
H  5.19100 6.09800 46.61900
Mg 53.43000 23.68000 44.03900
C  50.60500 25.72200 43.59200
C  51.43200 20.92900 43.52700
C  56.21400 21.92200 43.71600
C  55.42100 26.61100 44.29000
N  51.34600 23.39300 43.36500
C  50.33600 24.38200 43.24300
C  48.97800 23.81200 43.21200
C  49.26700 22.25100 43.29300
C  50.77800 22.16700 43.44100
C  48.41400 21.54400 44.37400
C  48.22300 24.06100 41.94200
C  49.03400 24.02900 40.63800
H  48.41800 23.46200 39.30000
N  53.81600 21.66600 43.70400
C  52.86000 20.71900 43.65000
C  53.50000 19.42800 43.60900
C  54.89000 19.67000 43.73700
C  55.04900 21.13300 43.75700
C  52.80700 18.10400 43.43000
C  55.97700 18.59900 43.82300
O  55.69800 17.41700 43.77300
C  57.46200 18.80800 43.85800
N  55.50100 24.20200 43.75000
C  56.49500 23.26200 43.68900
C  57.90500 23.90500 43.90100
C  57.59200 25.42600 43.76600
C  56.09200 25.42600 43.96400
C  58.57700 23.60200 45.26200
C  57.80600 26.06200 42.31200
C  58.53500 27.35500 42.24600
N  53.14400 25.68200 44.06800
C  53.99400 26.67600 44.35900
C  53.22600 27.91400 44.76200
C  51.87400 27.51900 44.50800
C  51.89200 26.20900 43.95100
C  53.71800 29.26500 45.26100
C  50.53800 28.03700 44.44100
O  50.10500 29.15300 44.68100
C  49.65300 26.85900 43.86500
C  49.16300 27.30200 42.50200
O  49.80500 27.46200 41.51700
O  47.78800 27.38800 42.55400
C  47.15600 27.52600 41.23800
H  50.76800 20.06300 43.56200
H  57.13800 21.34600 43.78900
H  56.08600 27.44900 44.50900
H  48.42400 24.23500 44.05000
H  49.15700 21.69500 42.36200
H  48.03700 20.69600 43.80200
H  47.64400 22.25100 44.68300
H  49.00900 21.15600 45.20100
H  47.55300 24.92000 41.98700
H  47.44900 23.32600 41.72000
H  49.94100 23.47800 40.88900
H  49.32900 25.07300 40.53100
H  53.31800 17.49200 42.68600
H  51.75400 18.26600 43.20000
H  52.89400 17.62800 44.40700
H  57.89700 19.23300 42.95400
H  57.81600 17.77700 43.85100
H  57.81900 19.19500 44.81300
H  58.56100 23.52900 43.11600
H  58.08000 26.03800 44.52500
H  58.61900 24.52500 45.84000
H  59.48300 23.00800 45.14300
H  57.92700 22.93400 45.82600
H  56.85800 26.15700 41.78300
H  58.38300 25.30400 41.78200
H  59.40900 27.31900 41.59600
H  58.83900 27.73400 43.22200
H  57.92000 28.14400 41.81400
H  53.34500 30.00700 44.55500
H  54.79200 29.18400 45.43300
H  53.17000 29.44900 46.18500
H  48.82700 26.60000 44.52700
H  47.72400 27.04800 40.44000
H  47.12200 28.60500 41.08700
H  46.11800 27.22500 41.37700


