%nproc=24
%mem=175gb
#p PBE1PBE/Def2SVP td=(nstates=5) density=(transition=1)

TDDFT excited states in gaussian

0 1
Mg 1.29600 7.71300 26.88100
C  1.46900 9.82700 29.67000
C  2.42600 5.06900 28.94700
C  1.47300 5.72500 24.13400
C  0.92500 10.50000 24.87700
N  1.69900 7.49100 29.04900
C  1.51500 8.49600 30.00300
C  1.43800 7.84300 31.43000
C  1.83300 6.38800 31.15200
C  2.05200 6.30500 29.60100
C  3.12000 6.01700 31.93700
C  0.04000 8.06800 31.99300
C  -0.12000 8.13500 33.50300
H  1.05800 7.66300 34.38500
N  1.84800 5.68100 26.53500
C  2.31100 4.77600 27.50900
C  2.63500 3.49600 26.90400
C  2.31300 3.59100 25.49300
C  1.87500 5.04400 25.33500
C  3.03900 2.24400 27.69300
C  2.37500 2.55400 24.38800
O  2.03400 2.84400 23.24900
C  2.64700 1.14500 24.75200
N  1.13700 8.09300 24.78900
C  1.15400 7.08500 23.87300
C  0.77800 7.64200 22.47500
C  0.53200 9.18300 22.70900
C  0.76500 9.29400 24.23800
C  1.89300 7.33600 21.45900
C  -0.89600 9.67800 22.35700
C  -0.86300 10.38200 21.00400
N  1.30900 9.79300 27.10700
C  1.22300 10.82400 26.23200
C  1.50800 12.06900 26.98600
C  1.50300 11.75700 28.31400
C  1.42300 10.34100 28.32600
C  1.55300 13.42200 26.29600
C  1.55800 12.26300 29.69200
O  1.68500 13.41500 30.08900
C  1.44800 11.03500 30.57500
C  2.56000 11.13900 31.53300
O  3.76600 10.89700 31.38900
O  2.04800 11.65700 32.70500
C  2.99200 11.90900 33.77200
H  2.69600 4.26200 29.63100
H  1.45200 4.99400 23.32300
H  0.89300 11.33000 24.16800
H  2.21800 8.40600 31.94400
H  1.06000 5.77700 31.61800
H  4.00400 5.85500 31.32000
H  2.97100 4.99800 32.29300
H  3.38200 6.77100 32.67900
H  -0.56100 7.28300 31.53300
H  -0.37400 8.97400 31.55200
H  -1.02500 7.59600 33.78000
H  -0.31800 9.19800 33.64500
H  3.22100 2.42800 28.75200
H  3.95300 1.82100 27.27400
H  2.28900 1.47200 27.52500
H  1.81900 0.77800 25.35900
H  3.66100 1.02700 25.13400
H  2.61600 0.48900 23.88200
H  -0.10600 7.10300 22.13500
H  1.34500 9.68200 22.18000
H  2.33200 8.19000 20.94400
H  1.31000 6.77100 20.73200
H  2.77000 6.84600 21.88100
H  -1.17200 10.51700 22.99600
H  -1.64500 8.88600 22.34300
H  -1.71200 9.95300 20.47200
H  -0.02300 10.09700 20.37100
H  -0.94100 11.46900 21.03900
H  1.59500 13.38900 25.20700
H  2.38500 14.03800 26.63500
H  0.58900 13.91000 26.44400
H  0.47700 11.06900 31.06800
H  3.81000 12.49700 33.35500
H  3.40600 11.00100 34.21100
H  2.51900 12.68100 34.37800
Mg 53.03600 23.47300 43.74200
C  50.27300 25.68400 43.34900
C  50.89700 20.80500 43.54400
C  55.76900 21.39500 43.06400
C  55.19900 26.21400 43.34600
N  50.76700 23.35900 43.20300
C  49.85000 24.33200 43.33000
C  48.49000 23.71000 43.58900
C  48.66000 22.11500 43.58600
C  50.27200 22.11900 43.58300
C  48.04000 21.54600 44.88200
C  47.47500 24.17900 42.55900
C  47.98000 24.34500 41.10600
H  47.51400 23.28000 40.07600
N  53.32100 21.33300 43.43700
C  52.26200 20.45300 43.38400
C  52.84400 19.14800 43.34900
C  54.26800 19.24400 43.11100
C  54.55100 20.69600 43.23900
C  52.01300 17.88700 43.29400
C  55.22500 18.13300 42.67600
O  54.80000 17.01500 42.45700
C  56.63100 18.33100 42.48800
N  55.16000 23.75300 43.17000
C  56.04500 22.76900 43.10900
C  57.45600 23.24500 42.80400
C  57.16400 24.78400 42.53600
C  55.80000 24.97000 43.09600
C  58.49900 22.99600 44.00000
C  57.34100 25.12500 40.98500
C  58.47200 25.99800 40.52000
N  52.84200 25.47200 43.66600
C  53.82600 26.48100 43.63200
C  53.20700 27.81500 43.74300
C  51.85100 27.50000 43.65700
C  51.62900 26.08900 43.48500
C  53.87500 29.20800 44.01000
C  50.52800 28.13200 43.63200
O  50.14800 29.31100 43.72400
C  49.45600 27.00700 43.45200
C  48.88400 27.41400 42.13800
O  49.50700 27.53100 41.11400
O  47.60700 27.75600 42.28300
C  46.79800 28.12100 41.06800
H  50.22500 19.97800 43.78200
H  56.71400 20.86800 42.91800
H  55.94300 26.97900 43.11200
H  48.29500 24.16100 44.56200
H  48.23100 21.65000 42.69800
H  47.24600 20.85400 44.60200
H  47.57500 22.29200 45.52700
H  48.83900 20.99200 45.37400
H  47.06700 25.14300 42.86300
H  46.65900 23.46100 42.47200
H  49.05000 24.24200 40.92600
H  47.63400 25.33600 40.81200
H  50.94600 18.10600 43.24600
H  52.31600 17.25700 44.13100
H  52.35200 17.31500 42.43100
H  56.90400 19.01600 41.68500
H  57.10100 17.37500 42.25800
H  56.94000 18.76400 43.44000
H  57.86000 22.86500 41.86600
H  58.02800 25.24600 43.01400
H  58.00400 22.45500 44.80700
H  58.78500 23.97500 44.38500
H  59.43300 22.50300 43.72600
H  56.50400 25.71600 40.61300
H  57.40500 24.21500 40.39000
H  58.17800 27.02600 40.30800
H  58.72900 25.47900 39.59600
H  59.39500 25.89600 41.09100
H  54.34600 29.53100 43.08200
H  54.56000 29.07800 44.84800
H  53.08700 29.93100 44.22000
H  48.79600 27.08200 44.31700
H  46.90900 29.16800 40.78500
H  45.73600 27.93300 41.23100
H  47.15900 27.45300 40.28600


