%nproc=24
%mem=175gb
#p PBE1PBE/Def2SVP td=(nstates=5) density=(transition=1)

TDDFT excited states in gaussian

0 1
Mg 35.28300 49.28100 25.05100
C  35.19500 47.66600 28.21300
C  33.70700 52.00200 26.67100
C  34.96700 50.74000 22.15000
C  36.56200 46.36300 23.65600
N  34.51200 49.78400 27.24100
C  34.71400 48.96400 28.32400
C  34.31200 49.60400 29.64200
C  33.71300 50.96400 29.08000
C  34.02200 50.95100 27.57500
C  32.25500 51.13300 29.49700
C  35.54400 49.80300 30.55200
C  35.36900 49.62200 32.10800
H  33.94300 49.72800 32.69800
N  34.52100 51.15700 24.48200
C  33.85000 52.07800 25.28700
C  33.47900 53.23000 24.45000
C  33.93900 52.90600 23.13200
C  34.54200 51.56500 23.25500
C  32.73100 54.35200 24.94000
C  33.82500 53.73400 21.85600
O  34.18700 53.27500 20.76100
C  33.44700 55.16200 21.91300
N  35.61000 48.60100 23.15100
C  35.50000 49.43800 22.11600
C  35.83700 48.71600 20.77100
C  36.52000 47.40900 21.28500
C  36.22400 47.41000 22.75200
C  34.60600 48.52300 19.81400
C  38.05900 47.61300 21.01100
C  38.99100 48.19700 22.12800
N  35.88400 47.43300 25.74900
C  36.37900 46.32800 25.03300
C  36.56500 45.20400 25.98400
C  36.06300 45.68400 27.18800
C  35.69100 47.00600 27.06500
C  36.87500 43.87200 25.49400
C  35.71300 45.23100 28.53200
O  35.83100 44.10500 29.00200
C  35.09700 46.50900 29.27300
C  33.71900 46.24000 29.75100
O  32.68000 46.50000 29.15100
O  33.78400 45.64900 31.02700
C  32.59200 45.22000 31.72300
H  33.45300 52.96300 27.12400
H  34.90900 51.17800 21.15100
H  37.00400 45.52600 23.11200
H  33.56100 49.02400 30.17900
H  34.21800 51.75900 29.62800
H  32.03300 52.05800 30.02800
H  31.83200 50.33100 30.10200
H  31.68100 51.22500 28.57400
H  35.98600 50.78700 30.39600
H  36.22100 49.06000 30.12900
H  35.89600 50.41200 32.64200
H  35.97000 48.74800 32.35900
H  33.30100 55.24000 24.66600
H  32.41200 54.18900 25.96900
H  31.80500 54.22200 24.37900
H  32.39300 55.32500 22.14000
H  33.61200 55.61800 20.93700
H  33.97000 55.60700 22.75900
H  36.50600 49.47100 20.35800
H  36.19100 46.53200 20.72700
H  34.58000 49.32300 19.07400
H  33.72600 48.44000 20.45100
H  34.76400 47.56600 19.31700
H  38.19100 48.07200 20.03100
H  38.44400 46.59300 21.03000
H  39.60900 48.91300 21.58700
H  39.65000 47.44800 22.56900
H  38.49600 48.74500 22.92900
H  36.19400 43.63700 24.67700
H  36.66800 43.18600 26.31600
H  37.94500 43.75700 25.32300
H  35.75600 46.63900 30.13200
H  32.37400 44.16000 31.59500
H  31.77700 45.93200 31.59200
H  32.87100 45.44400 32.75300
Mg 15.62100 51.82400 26.04800
C  17.47400 50.60700 28.62800
C  13.11000 52.75700 28.20700
C  13.81500 52.82700 23.36600
C  17.99400 50.42600 23.83300
N  15.23600 51.49000 28.16800
C  16.26900 51.27600 29.02600
C  15.94600 51.61800 30.44100
C  14.40600 52.07300 30.26100
C  14.21100 52.11900 28.78100
C  13.38100 51.07100 30.96200
C  16.88200 52.82900 30.90600
C  17.11300 53.00000 32.40900
H  16.27700 52.29800 33.50800
N  13.77400 52.76600 25.77300
C  12.87200 53.04400 26.81300
C  11.70500 53.64500 26.21000
C  11.90800 53.69900 24.81600
C  13.23300 53.12400 24.62900
C  10.53200 54.15900 27.07700
C  10.86200 54.19000 23.68400
O  11.18100 54.33400 22.49700
C  9.41300 54.55600 23.96000
N  15.93700 51.69300 23.86100
C  14.99700 52.16200 23.00600
C  15.27300 51.71300 21.57200
C  16.82600 51.21000 21.68000
C  17.02200 51.18500 23.20400
C  14.21700 50.69700 20.93700
C  17.94900 52.21900 21.11400
C  19.01900 51.70400 20.16900
N  17.42400 50.77200 26.12100
C  18.25400 50.26800 25.19100
C  19.45700 49.67400 25.85400
C  19.17000 49.86100 27.22700
C  17.86900 50.41600 27.30000
C  20.69200 49.07400 25.28100
C  19.74000 49.61300 28.49800
O  20.83000 49.08800 28.80500
C  18.66300 50.08200 29.47300
C  18.25000 48.96100 30.28600
O  17.83600 47.88700 29.97900
O  18.30900 49.39800 31.60600
C  17.88900 48.52200 32.76600
H  12.38500 53.27700 28.83600
H  13.18500 53.06500 22.50600
H  18.65800 49.80900 23.22500
H  16.01600 50.87800 31.23800
H  14.23400 53.06400 30.68100
H  12.50100 51.52900 31.41300
H  13.92900 50.42000 31.64300
H  12.99700 50.42600 30.17100
H  16.51300 53.78500 30.53400
H  17.84200 52.64500 30.42300
H  17.07200 54.07500 32.58900
H  18.14900 52.74600 32.63000
H  10.69700 54.07400 28.15100
H  9.65000 53.59900 26.76800
H  10.36400 55.20000 26.80000
H  9.47200 55.48000 24.53400
H  8.95500 53.91200 24.71100
H  8.82100 54.48200 23.04800
H  15.27500 52.60400 20.94300
H  16.96000 50.24900 21.18300
H  14.69800 49.77000 20.62400
H  13.70900 51.16400 20.09400
H  13.48400 50.38900 21.68300
H  18.44000 52.77000 21.91600
H  17.40700 53.00700 20.59200
H  19.97700 51.93800 20.63200
H  18.94100 52.12500 19.16700
H  18.97400 50.61500 20.12300
H  20.76700 49.12700 24.19500
H  20.76600 48.01700 25.53800
H  21.55200 49.59200 25.70500
H  19.01800 50.87900 30.12700
H  17.50200 47.57000 32.40200
H  17.07000 48.99900 33.30600
H  18.78800 48.39000 33.36800


