%nproc=24
%mem=175gb
#p PBE1PBE/Def2SVP td=(nstates=5) density=(transition=1)

TDDFT excited states in gaussian

0 1
Mg 46.63400 24.73200 28.52400
C  47.16600 26.79400 31.26900
C  45.35000 22.41900 30.76700
C  46.57500 22.51000 25.95000
C  48.10800 27.10900 26.49100
N  46.35100 24.60700 30.77200
C  46.60600 25.59200 31.71400
C  46.32600 25.14000 33.20100
C  46.05100 23.60400 32.96700
C  45.94200 23.50100 31.40100
C  47.03100 22.54000 33.47000
C  45.17300 25.95500 33.81500
C  45.53600 26.98000 34.85700
H  44.55500 27.15400 36.03000
N  45.88000 22.81500 28.28900
C  45.34100 22.11500 29.32300
C  44.95500 20.80900 28.75400
C  45.37600 20.75700 27.41600
C  45.95000 22.01600 27.13800
C  44.14400 19.85300 29.53100
C  45.30700 19.63400 26.42300
O  45.62600 19.75900 25.20800
C  44.90700 18.30200 26.75200
N  47.16200 24.82000 26.54200
C  47.02200 23.79200 25.66100
C  47.50000 24.11000 24.29900
C  47.94400 25.61100 24.43200
C  47.78600 25.82800 25.89000
C  48.58100 23.27100 23.55600
C  47.18600 26.64400 23.46000
C  45.80900 27.28400 23.80700
N  47.51200 26.55300 28.75500
C  48.03300 27.42300 27.84100
C  48.30100 28.65400 28.44600
C  48.04200 28.39000 29.84600
C  47.54000 27.10900 29.96100
C  48.74800 29.95300 27.77800
C  47.98400 29.05500 31.11600
O  48.14900 30.19900 31.48800
C  47.61900 27.93100 32.14800
C  48.80500 27.58900 32.95800
O  49.43200 26.50700 32.93800
O  49.23500 28.58100 33.76800
C  50.27600 28.29000 34.81200
H  45.00700 21.67200 31.48500
H  46.61700 21.83300 25.09400
H  48.42100 27.96800 25.89300
H  47.24300 25.06200 33.78600
H  45.06600 23.41800 33.39500
H  47.53600 22.06600 32.62800
H  46.41900 21.72900 33.86200
H  47.76900 22.88500 34.19500
H  44.55000 25.22000 34.32600
H  44.58000 26.37000 33.00000
H  45.61600 27.94300 34.35200
H  46.51600 26.85600 35.31800
H  43.21600 19.75600 28.96900
H  43.90200 20.07100 30.57200
H  44.63900 18.88200 29.54400
H  45.42400 18.07100 27.68300
H  45.01300 17.64200 25.89200
H  43.86100 18.27000 27.05700
H  46.55600 24.02200 23.76200
H  49.01300 25.68800 24.23700
H  48.17600 22.76600 22.67900
H  48.97300 22.47900 24.19500
H  49.46000 23.85000 23.27300
H  47.00900 26.03100 22.57600
H  47.98400 27.36400 23.27800
H  45.45700 27.11300 24.82400
H  45.01200 27.13000 23.07900
H  45.99000 28.35100 23.68400
H  49.68100 30.32800 28.20000
H  47.99600 30.71000 28.00000
H  48.80300 29.90800 26.69000
H  46.94500 28.37300 32.88200
H  50.12900 29.19800 35.39700
H  51.29200 28.18100 34.43400
H  50.01200 27.37900 35.35000
Mg 46.48800 44.18100 43.47500
C  43.15300 43.46100 43.30400
C  47.10800 40.75600 42.73500
C  49.77100 44.92500 43.24200
C  45.73500 47.57600 43.26500
N  45.18800 42.33600 42.67700
C  43.85400 42.27500 42.94800
C  43.32200 40.91600 42.58600
C  44.62300 40.02800 42.36600
C  45.76600 41.06300 42.61200
C  44.58600 38.65100 42.92100
C  42.20900 40.77400 41.44300
C  42.22600 41.75800 40.31100
H  42.13200 41.19200 38.90100
N  48.19100 42.96300 43.28600
C  48.25100 41.62900 43.02600
C  49.60100 41.16100 42.91600
C  50.41700 42.37800 43.18500
C  49.45800 43.50200 43.25700
C  50.07700 39.81200 42.65600
C  51.92500 42.49800 43.35200
O  52.62900 41.58000 43.12100
C  52.68900 43.74400 43.70500
N  47.56100 45.95400 43.15400
C  48.89600 45.98900 43.28400
C  49.46200 47.47200 42.97200
C  48.15100 48.31100 43.36800
C  47.10700 47.23300 43.19900
C  50.71200 47.88700 43.75300
C  48.00000 49.60500 42.54800
C  47.68500 50.93800 43.23700
N  44.79500 45.31200 43.20500
C  44.59800 46.68700 43.17600
C  43.22600 47.01600 43.20700
C  42.57500 45.79800 43.31300
C  43.57500 44.76200 43.30900
C  42.60800 48.38000 43.21500
C  41.37100 45.09400 43.47000
O  40.23700 45.56500 43.52900
C  41.64700 43.57300 43.29900
C  40.96100 42.96000 44.51100
O  40.13800 42.02200 44.45100
O  41.52200 43.52500 45.63200
C  41.27100 42.99100 46.99300
H  47.22800 39.72900 42.38400
H  50.80000 45.16300 42.96500
H  45.50900 48.64400 43.27100
H  42.74600 40.53700 43.43100
H  44.70600 39.88500 41.28900
H  45.47200 38.39300 43.50100
H  44.34100 37.90700 42.16300
H  43.78400 38.58200 43.65600
H  41.18300 40.86000 41.80100
H  42.35800 39.83500 40.90900
H  42.98200 42.53800 40.39500
H  41.27000 42.28200 40.33700
H  49.35900 39.10300 43.06700
H  51.06100 39.59900 43.07200
H  50.12200 39.70100 41.57200
H  51.89900 44.16700 44.32600
H  52.89000 44.37800 42.84200
H  53.62800 43.61700 44.24400
H  49.58000 47.51900 41.88900
H  48.02200 48.62000 44.40500
H  50.38700 48.59700 44.51400
H  51.51000 48.17200 43.06800
H  51.16800 47.06300 44.30100
H  47.21200 49.41800 41.81800
H  48.88600 49.70600 41.92100
H  48.29300 51.80900 42.99200
H  47.59300 50.84600 44.32000
H  46.63600 51.07800 42.97800
H  41.68900 48.46100 43.79600
H  42.39500 48.66700 42.18500
H  43.24900 49.14100 43.66200
H  41.15500 43.34600 42.35400
H  42.16000 43.01500 47.62300
H  40.93100 41.96000 46.89400
H  40.51300 43.43800 47.63500


