%nproc=24
%mem=175gb
#p PBE1PBE/Def2SVP td=(nstates=5) density=(transition=1)

TDDFT excited states in gaussian

0 1
Mg 26.06500 50.95300 26.70600
C  23.95100 52.21500 29.08800
C  28.12100 49.83900 29.10000
C  28.15700 49.98600 24.24600
C  24.06600 52.63600 24.17800
N  26.14100 51.27800 28.89700
C  25.13500 51.71000 29.66700
C  25.49500 51.52800 31.23000
C  26.85400 50.74300 31.10400
C  27.11600 50.62500 29.58900
C  28.00100 51.35300 31.93300
C  24.40800 50.76600 32.04000
C  24.78700 50.21400 33.45300
H  24.26800 51.00700 34.71200
N  27.93000 50.07200 26.68200
C  28.56100 49.60000 27.73700
C  29.78100 48.94300 27.29300
C  29.90300 49.05100 25.87500
C  28.62800 49.72200 25.53900
C  30.86100 48.38000 28.20200
C  31.03700 48.64600 24.93900
O  31.09500 49.07700 23.79100
C  32.08400 47.71600 25.44400
N  26.12000 51.31300 24.51700
C  27.05500 50.76500 23.75000
C  26.75200 50.94300 22.25300
C  25.36900 51.58600 22.31600
C  25.20000 51.88900 23.75800
C  27.77300 51.70600 21.39600
C  24.29900 50.82000 21.58000
C  23.63800 51.55200 20.35800
N  24.37700 52.10200 26.60600
C  23.61600 52.65500 25.52200
C  22.39000 53.25700 25.99800
C  22.52400 53.06300 27.40100
C  23.71600 52.38900 27.69500
C  21.20200 53.78500 25.27400
C  21.72000 53.18300 28.59100
O  20.53300 53.46900 28.80800
C  22.59000 52.78500 29.75700
C  22.95900 54.06000 30.54700
O  23.29600 55.16300 30.09000
O  22.85900 53.76400 31.87400
C  23.13500 54.86100 32.85500
H  28.80700 49.32300 29.77500
H  28.85800 49.89200 23.41400
H  23.44600 52.99600 23.35500
H  25.65400 52.54800 31.57800
H  26.67500 49.72400 31.44700
H  28.52200 50.52300 32.40900
H  27.63000 51.99000 32.73600
H  28.68100 51.92100 31.29800
H  24.23600 49.84500 31.48300
H  23.53400 51.40200 32.18000
H  25.86900 50.31100 33.54800
H  24.40200 49.19900 33.54500
H  30.59600 48.49500 29.25300
H  31.79900 48.90500 28.02300
H  31.04200 47.32300 28.01100
H  31.53500 46.89000 25.89700
H  32.83600 48.00900 26.17600
H  32.72300 47.32900 24.65100
H  26.66800 49.94900 21.81500
H  25.43600 52.54200 21.79700
H  27.79000 51.15500 20.45600
H  28.73100 51.77600 21.91100
H  27.54500 52.76300 21.25900
H  23.50000 50.72800 22.31500
H  24.63300 49.85300 21.20500
H  24.06100 52.55100 20.24900
H  22.57600 51.65700 20.58200
H  23.65600 51.00200 19.41700
H  21.27300 53.54700 24.21300
H  21.29800 54.86900 25.32400
H  20.34800 53.31100 25.76000
H  21.96100 52.11200 30.34000
H  24.03500 55.44400 32.65800
H  23.15200 54.54000 33.89600
H  22.32000 55.57300 32.72600
Mg 7.14200 57.54600 41.51700
C  6.28900 54.20700 41.28700
C  10.28800 56.72100 40.38900
C  7.81200 60.89700 41.16900
C  3.94100 58.30400 42.53200
N  8.10000 55.73200 40.72500
C  7.55000 54.46800 40.80800
C  8.51900 53.39300 40.32300
C  9.88500 54.17400 40.37000
C  9.39700 55.61300 40.45200
C  10.94100 53.73800 41.48400
C  8.18100 52.71900 38.95500
C  8.31100 51.21100 38.91500
H  9.48100 50.75900 38.05500
N  8.80400 58.60500 40.85800
C  9.98200 58.10200 40.47200
C  10.93200 59.16600 40.19700
C  10.33500 60.40200 40.38100
C  8.90800 60.02900 40.77200
C  12.41400 58.88100 39.65800
C  11.01900 61.80700 40.27800
O  12.22600 61.86700 39.90900
C  10.28000 63.06100 40.55000
N  5.92900 59.42300 41.58100
C  6.46000 60.62400 41.57700
C  5.53200 61.67900 42.14200
C  4.20400 60.94400 42.52900
C  4.70000 59.43900 42.28400
C  6.08200 62.75400 43.13300
C  2.88100 61.24800 41.76800
C  1.64800 60.78800 42.51800
N  5.41300 56.46200 41.84200
C  4.16700 56.89800 42.34900
C  3.34900 55.73600 42.56600
C  4.13900 54.62000 42.19700
C  5.33900 55.15600 41.73800
C  2.01600 55.69000 43.29800
C  4.11700 53.24300 42.14700
O  3.28800 52.39200 42.32200
C  5.50100 52.88200 41.39400
C  5.07100 52.59100 39.95700
O  4.83200 53.42500 39.10500
O  4.99200 51.21300 39.83600
C  4.48800 50.71300 38.56100
H  11.34700 56.50800 40.23000
H  8.09700 61.94400 41.04900
H  2.94700 58.37800 42.97800
H  8.57300 52.63000 41.09900
H  10.29300 54.14500 39.35900
H  11.53300 54.64700 41.59000
H  11.67500 53.00700 41.14400
H  10.53800 53.39000 42.43500
H  8.89800 53.17500 38.27200
H  7.26400 53.03800 38.46000
H  7.37100 50.81600 38.52900
H  8.48000 50.78000 39.90200
H  12.65000 57.83100 39.48000
H  13.15600 59.27900 40.35100
H  12.59000 59.28000 38.66000
H  9.90800 63.04900 41.57400
H  9.55300 63.27700 39.76700
H  11.06400 63.81300 40.63000
H  5.09100 62.35700 41.41100
H  4.06100 60.88100 43.60800
H  7.16900 62.67900 43.08000
H  5.65900 62.68700 44.13600
H  5.85900 63.78200 42.84700
H  2.99200 60.79700 40.78200
H  2.91000 62.32500 41.60300
H  0.83700 61.47100 42.26400
H  1.73700 60.78400 43.60500
H  1.32700 59.82700 42.11600
H  1.67100 54.68100 43.52400
H  1.28900 56.22800 42.69100
H  2.06800 56.22200 44.24800
H  6.04900 52.10100 41.92200
H  3.44600 51.01000 38.44100
H  4.61600 49.63500 38.46900
H  5.02300 51.19800 37.74500


