%nproc=24
%mem=175gb
#p PBE1PBE/Def2SVP td=(nstates=5) density=(transition=1)

TDDFT excited states in gaussian

0 1
Mg 17.05400 -2.28800 27.75000
C  16.54800 -0.35400 30.72600
C  18.85200 -4.52900 29.65700
C  18.01300 -3.67000 24.94900
C  15.39200 0.22200 26.03300
N  17.88600 -2.27700 29.96200
C  17.41200 -1.43700 30.93300
C  17.78200 -2.00100 32.33100
C  18.58500 -3.32700 31.99600
C  18.48400 -3.42400 30.43000
C  20.10200 -3.41100 32.45300
C  16.57800 -2.28600 33.26800
C  16.68400 -1.85000 34.68600
H  18.05300 -1.52300 35.39600
N  18.30500 -3.91800 27.31000
C  18.85900 -4.81900 28.21900
C  19.64100 -5.82500 27.47500
C  19.29300 -5.63200 26.08300
C  18.51600 -4.37100 26.05800
C  20.53100 -6.87100 28.07500
C  19.63900 -6.46300 24.82500
O  19.04500 -6.38400 23.72900
C  20.63000 -7.54600 24.97700
N  16.79100 -1.75400 25.84400
C  17.37300 -2.49900 24.84200
C  16.84500 -2.07000 23.44500
C  15.70300 -1.04100 23.86200
C  15.95300 -0.84300 25.34700
C  17.88000 -1.47900 22.40300
C  14.26500 -1.46100 23.60200
C  13.50200 -0.61900 22.55800
N  15.98100 -0.53800 28.25500
C  15.38600 0.39400 27.43800
C  14.87800 1.51400 28.24100
C  15.27300 1.20700 29.53100
C  15.93800 -0.03900 29.49700
C  14.17200 2.75100 27.79300
C  15.18900 1.69900 30.85900
O  14.57400 2.68200 31.36200
C  15.98100 0.75800 31.66400
C  17.01200 1.50300 32.46800
O  17.97500 2.03100 32.02700
O  16.72000 1.42300 33.76600
C  17.36800 2.29700 34.68400
H  19.44500 -5.28100 30.18200
H  18.21500 -4.04600 23.94300
H  14.94000 1.04300 25.47400
H  18.42200 -1.24900 32.79400
H  18.07000 -4.18900 32.41900
H  20.43900 -2.60400 33.10300
H  20.70600 -3.31100 31.55000
H  20.31100 -4.38200 32.90300
H  16.34900 -3.34900 33.35200
H  15.66000 -1.80400 32.93300
H  16.30900 -2.63700 35.34100
H  16.04900 -0.97200 34.80100
H  21.52400 -6.79800 27.63200
H  20.09600 -7.83300 27.80400
H  20.47400 -6.87000 29.16400
H  21.57900 -7.08500 25.25100
H  20.75500 -7.96300 23.97800
H  20.26200 -8.35300 25.61000
H  16.37000 -2.96000 23.03100
H  15.88800 -0.12500 23.30100
H  18.88000 -1.46500 22.83500
H  17.57100 -0.51800 21.99000
H  17.86400 -2.13300 21.53100
H  13.63500 -1.61600 24.47800
H  14.30700 -2.45900 23.16700
H  12.47900 -0.33500 22.80400
H  13.29800 -1.28100 21.71600
H  13.99200 0.30400 22.25100
H  13.75500 2.65600 26.79000
H  14.88900 3.56000 27.65400
H  13.49700 3.03000 28.60200
H  15.27200 0.27100 32.33300
H  16.91900 3.28000 34.53500
H  18.41700 2.43200 34.42000
H  17.17400 2.00000 35.71500
Mg -9.12600 18.73000 43.07000
C  -5.62300 18.44500 42.86700
C  -8.71100 22.08300 42.24600
C  -12.43100 19.03300 42.79300
C  -9.30300 15.26600 42.95700
N  -7.32000 20.02500 42.45300
C  -5.96700 19.76600 42.55400
C  -5.07000 20.98600 42.54900
C  -6.06600 22.15700 42.37300
C  -7.44800 21.42600 42.33500
C  -5.98600 23.25800 43.50700
C  -3.93600 21.03100 41.43000
C  -4.22600 20.35100 40.08200
H  -4.56600 21.25200 38.85800
N  -10.36200 20.30600 42.60500
C  -10.01500 21.60400 42.35900
C  -11.22400 22.42800 42.22000
C  -12.33600 21.54600 42.38200
C  -11.71100 20.20500 42.59800
C  -11.19700 23.93200 41.97500
C  -13.79400 22.10700 42.18800
O  -13.91800 23.28100 41.86800
C  -15.04600 21.14100 42.31600
N  -10.60200 17.36400 42.77700
C  -11.94900 17.71100 42.85200
C  -12.88700 16.37600 42.87100
C  -11.75200 15.22000 42.76300
C  -10.48500 16.00900 42.84500
C  -13.77000 16.28100 44.15000
C  -11.80700 14.33600 41.44400
C  -11.81900 12.80500 41.57400
N  -7.76200 17.11800 43.06200
C  -7.94400 15.76000 43.00400
C  -6.61700 15.11000 42.96500
C  -5.67900 16.17500 43.03100
C  -6.45600 17.36700 43.03800
C  -6.31500 13.64100 42.85700
C  -4.23100 16.45300 42.98800
O  -3.23100 15.72200 43.03800
C  -4.16400 17.97000 43.08300
C  -3.54200 18.42400 44.28100
O  -4.15400 18.45500 45.38000
O  -2.21800 18.84600 44.04800
C  -1.49600 19.49100 45.14000
H  -8.63900 23.16900 42.16100
H  -13.51700 19.11600 42.86600
H  -9.44500 14.18400 42.98300
H  -4.61500 20.94700 43.53800
H  -5.92300 22.50900 41.35200
H  -5.58200 24.18000 43.08900
H  -5.32600 22.85000 44.27300
H  -6.97200 23.48100 43.91600
H  -3.14100 20.46400 41.91600
H  -3.60700 22.06200 41.29800
H  -5.03700 19.62900 40.18300
H  -3.36900 19.72900 39.82700
H  -11.41500 24.23200 40.95000
H  -10.31200 24.38600 42.42100
H  -11.94400 24.43600 42.58800
H  -14.90900 20.56900 43.23400
H  -15.05000 20.49700 41.43700
H  -16.00600 21.63900 42.18000
H  -13.59700 16.50100 42.05400
H  -11.83300 14.61300 43.66500
H  -13.23300 15.66500 44.87100
H  -14.78200 15.93400 43.94100
H  -13.98700 17.24300 44.61400
H  -10.98000 14.66700 40.81500
H  -12.76100 14.64800 41.01900
H  -11.51100 12.31300 40.65100
H  -12.86600 12.60200 41.79800
H  -11.12600 12.60300 42.39100
H  -7.19000 13.22900 42.35500
H  -6.33400 13.32500 43.90000
H  -5.34100 13.39500 42.43300
H  -3.56700 18.21200 42.20400
H  -1.27600 18.88800 46.02100
H  -2.03900 20.37600 45.47300
H  -0.61300 19.94900 44.69400


