%nproc=24
%mem=175gb
#p PBE1PBE/Def2SVP td=(nstates=5) density=(transition=1)

TDDFT excited states in gaussian

0 1
Mg 0.26000 43.34200 24.75600
C  2.25300 43.09900 27.61800
C  -2.44200 42.42000 26.69400
C  -1.57400 42.87700 21.91500
C  3.14600 43.60500 22.86000
N  -0.01100 42.92700 26.88700
C  0.88400 43.10000 27.86800
C  0.29200 43.09400 29.28500
C  -1.20300 42.68500 28.99500
C  -1.29800 42.75900 27.37000
C  -1.68200 41.32300 29.54200
C  0.44600 44.41100 30.04600
C  0.46000 44.23200 31.57500
H  0.30000 42.82500 32.16800
N  -1.74500 42.84700 24.34000
C  -2.74500 42.55800 25.29700
C  -3.99500 42.34000 24.59700
C  -3.74800 42.40500 23.17500
C  -2.33100 42.75300 23.08200
C  -5.28700 42.18000 25.35000
C  -4.75800 42.32200 21.94400
O  -4.44000 42.53400 20.79900
C  -6.18400 41.93600 22.27200
N  0.72800 43.16000 22.71000
C  -0.18900 43.01100 21.71100
C  0.47200 43.04900 20.28400
C  1.92800 43.34600 20.63900
C  1.92700 43.36400 22.15600
C  0.26000 41.87700 19.24300
C  2.38800 44.69400 20.03600
C  2.04300 46.00200 20.78200
N  2.32100 43.50900 25.09100
C  3.38200 43.61100 24.22900
C  4.61600 43.69300 24.93600
C  4.22700 43.48400 26.33500
C  2.89200 43.36300 26.33900
C  5.99200 43.88800 24.47400
C  4.71200 43.25500 27.68900
O  5.85600 43.34100 28.14800
C  3.47500 43.00100 28.60000
C  3.56600 41.71300 29.28000
O  3.33400 40.61600 28.78300
O  4.17100 41.89000 30.49900
C  4.75700 40.73100 31.20000
H  -3.23100 42.10200 27.37900
H  -2.18100 42.91300 21.00800
H  4.04900 43.78500 22.27300
H  0.67700 42.26400 29.87700
H  -1.92300 43.45600 29.26700
H  -2.57300 41.63600 30.08600
H  -0.94100 40.89700 30.21800
H  -1.87200 40.62800 28.72400
H  -0.32500 45.13200 29.77700
H  1.38300 44.89600 29.77100
H  -0.37400 44.87500 31.85700
H  1.32100 44.72000 32.03400
H  -5.00100 42.06900 26.39600
H  -5.81000 41.30000 24.97500
H  -5.96200 43.02800 25.22500
H  -6.37400 40.88800 22.50600
H  -6.81500 42.27400 21.45000
H  -6.38700 42.55900 23.14300
H  -0.03500 43.91100 19.85100
H  2.51500 42.52100 20.23700
H  1.17400 41.51200 18.77600
H  -0.34600 42.26100 18.42300
H  -0.30900 41.09200 19.74200
H  1.97300 44.71300 19.02900
H  3.46900 44.59400 19.93400
H  1.75200 46.69500 19.99300
H  2.89700 46.44600 21.29300
H  1.29400 45.88900 21.56500
H  6.47500 44.58100 25.16200
H  6.09900 44.26000 23.45500
H  6.57000 42.97800 24.63600
H  3.48200 43.84300 29.29200
H  4.58400 39.79600 30.66600
H  4.26600 40.64900 32.17000
H  5.80700 41.02000 31.22900
Mg -9.66500 18.33400 42.78400
C  -6.24000 17.80500 42.49600
C  -9.09900 21.67600 42.05300
C  -12.91200 18.87400 42.48300
C  -10.14800 14.91400 43.00500
N  -7.91600 19.56100 42.17100
C  -6.59800 19.16200 42.25800
C  -5.63300 20.29600 42.07600
C  -6.57300 21.55800 42.31900
C  -7.95100 20.93600 42.13600
C  -6.37100 22.54100 43.56800
C  -4.81400 20.28500 40.70300
C  -5.51800 19.69700 39.44400
H  -5.27900 20.48100 38.17600
N  -10.85700 20.01500 42.21400
C  -10.42000 21.32200 41.96500
C  -11.51000 22.18000 41.58900
C  -12.66600 21.36900 41.68400
C  -12.20600 20.01400 42.11100
C  -11.29500 23.68900 41.46200
C  -14.07900 21.93000 41.40500
O  -14.25800 23.08100 40.99400
C  -15.20100 21.03000 41.71200
N  -11.24800 17.01300 42.63400
C  -12.52300 17.52900 42.79400
C  -13.59000 16.43700 43.02800
C  -12.64200 15.17100 42.94600
C  -11.28500 15.70200 42.80600
C  -14.41600 16.47100 44.27500
C  -12.97300 14.21900 41.68800
C  -13.02000 12.77100 42.10100
N  -8.45700 16.64500 42.95800
C  -8.80300 15.30900 43.04100
C  -7.58100 14.47400 43.08900
C  -6.53000 15.43300 42.87800
C  -7.12900 16.69600 42.80500
C  -7.42000 13.00900 43.03700
C  -5.08700 15.65900 42.64900
O  -4.19400 14.85200 42.53200
C  -4.84400 17.18800 42.43700
C  -3.86600 17.68600 43.40500
O  -2.75700 18.18900 43.22300
O  -4.28400 17.22800 44.68200
C  -3.45300 17.67600 45.82000
H  -8.86100 22.74200 42.07500
H  -13.99400 18.96100 42.60100
H  -10.40600 13.86400 43.15400
H  -4.85200 20.25200 42.83500
H  -6.35600 22.13700 41.42100
H  -5.49500 22.34800 44.18700
H  -7.18200 22.50000 44.29500
H  -6.14100 23.54200 43.20200
H  -3.84000 19.81700 40.84200
H  -4.55300 21.32400 40.50200
H  -6.59000 19.59400 39.61500
H  -5.14100 18.69400 39.24600
H  -11.94900 24.16700 40.73200
H  -10.29700 23.87500 41.06600
H  -11.49900 24.10000 42.45100
H  -15.27200 20.92300 42.79400
H  -15.05600 20.07500 41.20600
H  -16.08400 21.54300 41.33100
H  -14.18800 16.36800 42.11900
H  -12.69300 14.77700 43.96100
H  -14.92900 15.51000 44.31600
H  -15.20300 17.20800 44.11500
H  -13.79200 16.69500 45.14100
H  -12.21000 14.42700 40.93800
H  -13.86700 14.45400 41.10900
H  -12.15800 12.27100 41.66000
H  -13.81800 12.22200 41.60000
H  -12.89800 12.69100 43.18100
H  -8.34400 12.43000 43.00100
H  -6.93100 12.73100 43.97000
H  -6.96900 12.89900 42.05100
H  -4.46800 17.26400 41.41700
H  -4.21000 17.98200 46.54300
H  -2.74000 18.49300 45.70900
H  -3.06600 16.75200 46.25000


