%nproc=24
%mem=175gb
#p PBE1PBE/Def2SVP td=(nstates=5) density=(transition=1)

TDDFT excited states in gaussian

0 1
Mg 17.10100 -2.07700 27.77000
C  16.45500 -0.19100 30.58100
C  19.23600 -3.94700 29.68100
C  17.96100 -3.74600 24.96300
C  15.37700 0.23000 25.82200
N  17.83400 -1.91300 29.91400
C  17.31200 -1.24300 30.86800
C  17.86400 -1.55200 32.35400
C  18.99500 -2.58100 31.95700
C  18.76000 -2.80300 30.38800
C  20.50900 -2.04800 32.15900
C  16.79200 -2.13400 33.37400
C  16.96200 -1.78000 34.89400
H  18.25700 -1.14000 35.29400
N  18.31900 -3.63600 27.38700
C  19.10500 -4.38300 28.35000
C  19.74900 -5.47800 27.63200
C  19.48000 -5.36700 26.24500
C  18.51900 -4.24500 26.14900
C  20.50800 -6.46400 28.44500
C  19.91900 -6.24400 25.04900
O  19.71600 -6.00400 23.89600
C  20.84100 -7.42500 25.41400
N  16.84100 -1.78700 25.63700
C  17.26600 -2.56700 24.69400
C  17.04700 -1.94200 23.28700
C  16.12300 -0.73100 23.56000
C  16.07300 -0.74300 25.10600
C  18.39300 -1.56900 22.63000
C  14.74200 -0.86000 22.84700
C  14.78100 -0.68700 21.32000
N  16.09100 -0.30700 28.09200
C  15.35600 0.45700 27.20300
C  14.73300 1.49900 27.97600
C  15.14100 1.35600 29.33600
C  15.94900 0.18700 29.29900
C  13.91400 2.52600 27.44500
C  15.02300 1.80700 30.68600
O  14.43000 2.83800 31.12300
C  15.98100 0.86900 31.51800
C  16.98700 1.71200 32.12800
O  17.99700 2.11700 31.55300
O  16.51500 2.07400 33.36400
C  17.31500 3.14200 34.00000
H  19.94300 -4.54500 30.25900
H  18.26400 -4.34800 24.10300
H  14.78900 0.88500 25.17500
H  18.31000 -0.60500 32.65900
H  18.90200 -3.48800 32.55400
H  20.47800 -0.95900 32.20400
H  21.12500 -2.36600 31.31800
H  21.03200 -2.40200 33.04800
H  16.90400 -3.21300 33.27100
H  15.74800 -2.07700 33.06400
H  16.83100 -2.63200 35.56100
H  16.22600 -1.02300 35.16500
H  21.52400 -6.11200 28.62600
H  20.42400 -7.48300 28.06700
H  20.00400 -6.52900 29.40900
H  20.33800 -8.26100 25.90100
H  21.56700 -6.93500 26.06200
H  21.42700 -7.84100 24.59500
H  16.51200 -2.73300 22.76200
H  16.63000 0.18800 23.26600
H  19.22100 -1.38900 23.31600
H  18.44300 -0.64500 22.05300
H  18.63700 -2.41000 21.98100
H  14.08400 -0.07400 23.21500
H  14.28900 -1.82100 23.09300
H  15.82700 -0.60000 21.02600
H  14.42000 0.31100 21.07100
H  14.22200 -1.38300 20.69500
H  13.25200 2.01200 26.74800
H  14.42200 3.30300 26.87400
H  13.44500 3.05700 28.27400
H  15.32300 0.48100 32.29600
H  17.17000 4.03200 33.38700
H  18.34600 2.83300 34.16900
H  16.87700 3.33200 34.98000
Mg 25.49300 50.21300 27.08700
C  23.37900 51.54000 29.65700
C  27.62800 49.17200 29.69500
C  27.85200 49.59100 24.90700
C  23.46200 51.62200 24.75200
N  25.44300 50.31400 29.39800
C  24.41900 50.80900 30.13400
C  24.66700 50.47600 31.59600
C  26.00400 49.68800 31.68900
C  26.38100 49.68400 30.19500
C  27.10100 50.37400 32.68300
C  23.49400 49.61900 32.23900
C  22.96400 50.09200 33.59300
H  23.92100 50.77900 34.64800
N  27.50700 49.52400 27.28400
C  28.12900 49.15000 28.38200
C  29.45200 48.73800 28.00600
C  29.55900 48.68700 26.59300
C  28.31600 49.30500 26.21200
C  30.44200 48.13300 29.00000
C  30.57100 48.09600 25.62400
O  30.49100 48.23300 24.41700
C  31.66500 47.26500 26.23600
N  25.76300 50.88600 25.17100
C  26.76300 50.29700 24.39500
C  26.51800 50.44800 22.86900
C  25.02700 50.95500 22.90400
C  24.70800 51.17300 24.38300
C  27.54000 51.40800 22.24300
C  23.97400 49.88700 22.34200
C  23.37400 50.12000 20.99600
N  23.75000 51.22900 27.14200
C  23.04900 51.77400 26.08800
C  21.90700 52.57500 26.52100
C  21.98600 52.51200 27.95800
C  23.17000 51.80300 28.27000
C  20.85200 53.08800 25.60900
C  21.31100 52.84500 29.20300
O  20.22900 53.44600 29.33300
C  22.22800 52.23700 30.41000
C  22.63900 53.39700 31.18500
O  23.23000 54.34500 30.71600
O  22.29300 53.27500 32.47200
C  22.54800 54.35700 33.47400
H  28.29000 48.76300 30.46100
H  28.36300 49.05600 24.10300
H  22.79700 51.98300 23.96500
H  24.78800 51.42300 32.12200
H  25.86900 48.70800 32.14700
H  26.61300 51.02100 33.41200
H  27.77100 50.92200 32.02000
H  27.67200 49.59700 33.19100
H  23.69200 48.55100 32.31900
H  22.62100 49.66400 31.58800
H  22.46400 49.28700 34.13200
H  22.16000 50.77100 33.30900
H  30.45600 47.04300 29.00900
H  30.32700 48.56400 29.99500
H  31.42700 48.48300 28.69200
H  31.35000 46.60400 27.04400
H  32.50000 47.83500 26.64100
H  31.97600 46.50800 25.51600
H  26.62800 49.45900 22.42500
H  24.97100 51.86600 22.30800
H  28.36600 51.68000 22.90000
H  27.08200 52.35600 21.96300
H  27.94500 50.95800 21.33600
H  23.09600 49.73600 22.97000
H  24.37200 48.87300 22.33000
H  23.66900 49.32700 20.31000
H  23.80100 51.07900 20.70200
H  22.28600 50.13300 21.06000
H  19.87400 53.08000 26.08900
H  20.94000 52.51200 24.68800
H  21.11300 54.12300 25.38400
H  21.65900 51.56400 31.05000
H  22.17700 55.30500 33.08400
H  23.60800 54.48100 33.69700
H  22.16500 54.13200 34.46900


