%nproc=24
%mem=175gb
#p PBE1PBE/Def2SVP td=(nstates=5) density=(transition=1)

TDDFT excited states in gaussian

0 1
Mg 35.26200 1.75200 29.96200
C  32.85500 2.58300 32.32000
C  37.64200 1.80100 32.35100
C  37.51600 1.12500 27.56800
C  32.74800 1.88400 27.52800
N  35.16600 2.13300 32.11400
C  34.11900 2.35200 32.87300
C  34.63200 2.45300 34.38300
C  36.03300 2.95200 34.09900
C  36.35200 2.21400 32.76000
C  36.05200 4.49500 34.04900
C  34.37500 1.08800 35.15500
C  34.37600 1.20900 36.68200
H  34.84400 2.50900 37.31300
N  37.24000 1.32700 29.98300
C  38.04600 1.32500 31.11900
C  39.36800 0.74800 30.73100
C  39.37200 0.59900 29.27900
C  38.02100 1.10700 28.92100
C  40.46600 0.47300 31.73100
C  40.47100 0.00700 28.28100
O  40.29400 -0.12300 27.06500
C  41.78300 -0.42500 28.90200
N  35.17700 1.65000 27.89700
C  36.22800 1.39600 27.12200
C  35.89000 1.47100 25.60100
C  34.35600 1.46600 25.66700
C  34.03700 1.61900 27.12100
C  36.49900 2.69400 24.86000
C  33.56700 0.32100 24.88900
C  33.00100 -0.79800 25.70000
N  33.26100 2.34500 29.84600
C  32.36300 2.28700 28.83400
C  31.06300 2.71100 29.21500
C  31.19600 2.84400 30.63300
C  32.52400 2.60100 30.90000
C  29.78600 2.98300 28.46300
C  30.54600 3.13100 31.87700
O  29.40100 3.42500 32.14500
C  31.52900 2.83000 33.05300
C  31.55800 3.97100 33.97300
O  31.92600 5.08300 33.62600
O  30.95500 3.71000 35.23000
C  30.85200 4.85600 36.14700
H  38.39100 1.89200 33.13900
H  38.28200 0.96200 26.80800
H  32.00200 1.96400 26.73500
H  34.02600 3.17400 34.93000
H  36.78800 2.59500 34.79900
H  36.64600 4.74400 34.92900
H  35.05700 4.93600 34.12200
H  36.63900 4.75700 33.16900
H  35.14200 0.35900 34.89200
H  33.36400 0.79400 34.87200
H  34.98900 0.39000 37.05700
H  33.35800 1.00500 37.01300
H  40.05900 0.17200 32.69700
H  41.18400 1.27200 31.91300
H  41.03100 -0.39400 31.38900
H  42.08900 0.44800 29.47800
H  42.58200 -0.61900 28.18700
H  41.63400 -1.33400 29.48500
H  36.25600 0.59300 25.06900
H  34.05000 2.44500 25.30000
H  35.69900 3.06000 24.21600
H  37.40400 2.52000 24.28000
H  36.80800 3.41800 25.61400
H  34.19600 -0.03500 24.07300
H  32.66800 0.75100 24.44800
H  31.91500 -0.71000 25.66100
H  33.14600 -0.73200 26.77900
H  33.24300 -1.79400 25.32900
H  29.91400 2.90200 27.38300
H  29.37400 3.93500 28.79900
H  28.98400 2.25500 28.58700
H  31.23100 1.94400 33.61300
H  30.55000 4.60700 37.16400
H  30.10200 5.48600 35.66800
H  31.81400 5.36300 36.08200
Mg 40.80400 41.48400 27.15800
C  39.93800 43.96600 29.51800
C  41.67100 39.43500 29.59200
C  42.41200 39.59100 24.81200
C  40.80000 44.20800 24.65700
N  40.84000 41.74700 29.31900
C  40.23400 42.70800 30.04600
C  40.11400 42.23500 31.50800
C  40.62500 40.83000 31.52200
C  41.12800 40.63200 30.06000
C  41.62900 40.55000 32.71400
C  38.74000 42.40700 32.23800
C  38.20000 41.35400 33.29800
H  37.58800 41.87900 34.60500
N  41.67300 39.62800 27.19200
C  41.94100 38.92200 28.34300
C  42.50600 37.66000 27.95800
C  42.79100 37.65600 26.53700
C  42.34000 39.00600 26.13300
C  42.84100 36.69600 29.02300
C  43.34600 36.53900 25.61900
O  43.54900 36.75600 24.47000
C  43.39500 35.12400 26.09600
N  41.54800 41.90500 25.04000
C  42.04300 40.86300 24.33500
C  42.34300 41.24800 22.85100
C  41.79900 42.70700 22.76800
C  41.36100 43.00200 24.22400
C  43.78600 41.15300 22.43200
C  40.63300 43.00600 21.76200
C  39.24100 42.61000 22.12200
N  40.45200 43.63600 26.97900
C  40.44000 44.51600 25.93500
C  39.94600 45.79200 26.39200
C  39.72700 45.66500 27.78900
C  40.09700 44.34100 28.10100
C  39.86300 47.06500 25.62600
C  39.33400 46.33800 28.99400
O  38.92600 47.46900 29.23200
C  39.40400 45.25700 30.16400
C  40.16300 45.75100 31.38400
O  41.33900 46.00900 31.38400
O  39.30000 45.80400 32.46700
C  39.93400 46.30500 33.68700
H  41.79100 38.62500 30.31500
H  42.89000 38.90600 24.10900
H  40.69600 44.98800 23.90000
H  40.78700 42.96300 31.96100
H  39.78000 40.17800 31.74500
H  41.64600 41.41100 33.38200
H  42.57700 40.23500 32.27800
H  41.25100 39.76900 33.37400
H  37.98000 42.45900 31.45800
H  38.66600 43.37100 32.74200
H  39.06500 40.72800 33.51800
H  37.46000 40.71500 32.81600
H  43.75800 36.20700 28.69500
H  42.05100 35.94600 29.03300
H  42.98100 37.00500 30.05900
H  44.39900 35.05700 26.51300
H  43.13900 34.46100 25.26900
H  42.74200 34.89700 26.93900
H  41.71500 40.69400 22.15300
H  42.49200 43.53200 22.60600
H  44.38600 40.63600 23.18200
H  44.24800 42.13400 22.31800
H  43.78100 40.59500 21.49600
H  40.84900 42.53700 20.80200
H  40.70100 44.05800 21.48400
H  39.26600 41.80800 22.86000
H  38.56300 42.19300 21.37700
H  38.76600 43.53300 22.45600
H  40.81300 47.42600 25.23300
H  39.70300 47.84000 26.37600
H  39.09100 47.02600 24.85700
H  38.36800 45.04000 30.42500
H  39.84500 45.31900 34.14200
H  39.21300 47.03100 34.06200
H  40.94500 46.67900 33.52400


